
  EPA STORM WATER MANAGEMENT MODEL - VERSION 5.1 (Build 5.1.009)
  --------------------------------------------------------------

  
  *********************************************************
  NOTE: The summary statistics displayed in this report are
  based on results found at every computational time step,  
  not just on results from each reporting time step.
  *********************************************************
  
  ****************
  Analysis Options
  ****************
  Flow Units ............... CMS
  Process Models:
    Rainfall/Runoff ........ NO
    RDII ................... NO
    Snowmelt ............... NO
    Groundwater ............ NO
    Flow Routing ........... YES
    Ponding Allowed ........ NO
    Water Quality .......... NO
  Flow Routing Method ...... DYNWAVE
  Starting Date ............ AUG-23-2013 00:00:00
  Ending Date .............. AUG-23-2013 05:00:00
  Antecedent Dry Days ...... 0.0
  Report Time Step ......... 00:01:00
  Routing Time Step ........ 60.00 sec
  Variable Time Step ....... YES
  Maximum Trials ........... 8
  Number of Threads ........ 1
  Head Tolerance ........... 0.001500 m
  
  
  **************************        Volume        Volume
  Flow Routing Continuity        hectare-m      10^6 ltr
  **************************     ---------     ---------
  Dry Weather Inflow .......         0.000         0.000
  Wet Weather Inflow .......         0.000         0.000
  Groundwater Inflow .......         0.000         0.000
  RDII Inflow ..............         0.000         0.000
  External Inflow ..........         5.147        51.469
  External Outflow .........         4.553        45.531
  Flooding Loss ............         0.589         5.885
  Evaporation Loss .........         0.000         0.000
  Exfiltration Loss ........         0.000         0.000
  Initial Stored Volume ....         0.082         0.819
  Final Stored Volume ......         0.088         0.876
  Continuity Error (%) .....        -0.007
  
  
  ***************************
  Time-Step Critical Elements
  ***************************
  Link 1 (37.80%)
  
  
  ********************************
  Highest Flow Instability Indexes
  ********************************
  All links are stable.
  
  
  *************************
  Routing Time Step Summary
  *************************
  Minimum Time Step           :    35.42 sec
  Average Time Step           :    54.88 sec
  Maximum Time Step           :    60.00 sec
  Percent in Steady State     :     0.00
  Average Iterations per Step :     2.50
  Percent Not Converging      :     1.22
  
  
  ******************
  Node Depth Summary
  ******************
  
  ---------------------------------------------------------------------------------
                                 Average  Maximum  Maximum  Time of Max    Reported
                                   Depth    Depth      HGL   Occurrence   Max Depth
  Node                 Type       Meters   Meters   Meters  days hr:min      Meters
  ---------------------------------------------------------------------------------
  1                    JUNCTION     0.67     1.11    40.28     0  01:59        0.34
  2                    JUNCTION     1.12     2.00    31.46     0  01:29        0.61
  3                    OUTFALL      0.83     1.06    24.66     0  01:48        0.32
  
  
  *******************
  Node Inflow Summary
  *******************
  
  -------------------------------------------------------------------------------------------------
                                  Maximum  Maximum                  Lateral       Total        Flow
                                  Lateral    Total  Time of Max      Inflow      Inflow     Balance
                                   Inflow   Inflow   Occurrence      Volume      Volume       Error
  Node                 Type           CMS      CMS  days hr:min    10^6 ltr    10^6 ltr     Percent
  -------------------------------------------------------------------------------------------------
  1                    JUNCTION     6.281    6.281     0  01:58        51.5        51.5      -0.000
  2                    JUNCTION     0.000    6.283     0  02:00           0        51.5       0.102
  3                    OUTFALL      0.000    4.015     0  01:52           0        45.5       0.000
  
  
  **********************
  Node Surcharge Summary
  **********************
  
  Surcharging occurs when water rises above the top of the highest conduit.
  ---------------------------------------------------------------------
                                               Max. Height   Min. Depth
                                   Hours       Above Crown    Below Rim
  Node                 Type      Surcharged         Meters       Meters
  ---------------------------------------------------------------------
  2                    JUNCTION        1.20          0.600        0.000
  
  
  *********************
  Node Flooding Summary
  *********************
  
  Flooding refers to all water that overflows a node, whether it ponds or not.
  --------------------------------------------------------------------------
                                                             Total   Maximum
                                 Maximum   Time of Max       Flood    Ponded
                        Hours       Rate    Occurrence      Volume     Depth
  Node                 Flooded       CMS   days hr:min    10^6 ltr    Meters
  --------------------------------------------------------------------------
  2                       1.13     2.267      0  02:00       5.885     0.000
  
  
  ***********************
  Outfall Loading Summary
  ***********************
  
  -----------------------------------------------------------
                         Flow       Avg       Max       Total
                         Freq      Flow      Flow      Volume
  Outfall Node           Pcnt       CMS       CMS    10^6 ltr
  -----------------------------------------------------------
  3                    100.00     2.643     4.015      45.531
  -----------------------------------------------------------
  System               100.00     2.643     4.015      45.531
  
  
  ********************
  Link Flow Summary
  ********************
  
  -----------------------------------------------------------------------------
                                 Maximum  Time of Max   Maximum    Max/    Max/
                                  |Flow|   Occurrence   |Veloc|    Full    Full
  Link                 Type          CMS  days hr:min     m/sec    Flow   Depth
  -----------------------------------------------------------------------------
  1                    CONDUIT     6.283     0  02:00      4.32    0.97    0.90
  2                    CONDUIT     4.015     0  01:52      2.83    1.09    0.88
  
  
  ***************************
  Flow Classification Summary
  ***************************
  
  -------------------------------------------------------------------------------------
                      Adjusted    ---------- Fraction of Time in Flow Class ---------- 
                       /Actual         Up    Down  Sub   Sup   Up    Down  Norm  Inlet 
  Conduit               Length    Dry  Dry   Dry   Crit  Crit  Crit  Crit  Ltd   Ctrl  
  -------------------------------------------------------------------------------------
  1                       1.00   0.00  0.00  0.00  0.07  0.93  0.00  0.00  1.00  0.00
  2                       1.00   0.00  0.00  0.00  0.48  0.52  0.00  0.00  0.20  0.00
  
  
  *************************
  Conduit Surcharge Summary
  *************************
  
  ----------------------------------------------------------------------------
                                                           Hours        Hours 
                         --------- Hours Full --------   Above Full   Capacity
  Conduit                Both Ends  Upstream  Dnstream   Normal Flow   Limited
  ----------------------------------------------------------------------------
  1                           0.01      0.01      1.20      0.01         0.01
  2                           0.01      1.20      0.01      1.37         0.01
  
  
  ************
  Node Results
  ************
  
  <<< Node 1 >>>
  ----------------------------------------------------------------
                           Inflow  Flooding     Depth      Head
  Date        Time            CMS       CMS    meters    meters
  ----------------------------------------------------------------
  AUG-23-2013 00:01:00      1.600     0.000     0.473    39.643
  AUG-23-2013 00:02:00      1.600     0.000     0.474    39.644
  AUG-23-2013 00:03:00      1.600     0.000     0.474    39.644
  AUG-23-2013 00:04:00      1.600     0.000     0.474    39.644
  AUG-23-2013 00:05:00      1.600     0.000     0.474    39.644
  AUG-23-2013 00:06:00      1.600     0.000     0.474    39.644
  AUG-23-2013 00:07:00      1.600     0.000     0.474    39.644
  AUG-23-2013 00:08:00      1.608     0.000     0.474    39.644
  AUG-23-2013 00:09:00      1.616     0.000     0.476    39.646
  AUG-23-2013 00:10:00      1.625     0.000     0.477    39.647
  AUG-23-2013 00:11:00      1.634     0.000     0.479    39.649
  AUG-23-2013 00:12:00      1.644     0.000     0.480    39.650
  AUG-23-2013 00:13:00      1.655     0.000     0.482    39.652
  AUG-23-2013 00:14:00      1.663     0.000     0.483    39.653
  AUG-23-2013 00:15:00      1.672     0.000     0.485    39.655
  AUG-23-2013 00:16:00      1.680     0.000     0.486    39.656
  AUG-23-2013 00:17:00      1.689     0.000     0.487    39.657
  AUG-23-2013 00:18:00      1.697     0.000     0.488    39.658
  AUG-23-2013 00:19:00      1.705     0.000     0.490    39.660
  AUG-23-2013 00:20:00      1.711     0.000     0.491    39.661
  AUG-23-2013 00:21:00      1.718     0.000     0.492    39.662
  AUG-23-2013 00:22:00      1.718     0.000     0.492    39.662
  AUG-23-2013 00:23:00      1.718     0.000     0.492    39.662
  AUG-23-2013 00:24:00      1.729     0.000     0.493    39.663
  AUG-23-2013 00:25:00      1.739     0.000     0.494    39.664
  AUG-23-2013 00:26:00      1.748     0.000     0.496    39.666
  AUG-23-2013 00:27:00      1.756     0.000     0.497    39.667
  AUG-23-2013 00:28:00      1.765     0.000     0.499    39.669
  AUG-23-2013 00:29:00      1.774     0.000     0.500    39.670
  AUG-23-2013 00:30:00      1.786     0.000     0.501    39.671
  AUG-23-2013 00:31:00      1.799     0.000     0.503    39.673
  AUG-23-2013 00:32:00      1.813     0.000     0.506    39.676
  AUG-23-2013 00:33:00      1.828     0.000     0.508    39.678
  AUG-23-2013 00:34:00      1.836     0.000     0.509    39.679
  AUG-23-2013 00:35:00      1.845     0.000     0.511    39.681
  AUG-23-2013 00:36:00      1.866     0.000     0.513    39.683
  AUG-23-2013 00:37:00      1.887     0.000     0.516    39.686
  AUG-23-2013 00:38:00      1.904     0.000     0.519    39.689
  AUG-23-2013 00:39:00      1.921     0.000     0.522    39.692
  AUG-23-2013 00:40:00      1.938     0.000     0.524    39.694
  AUG-23-2013 00:41:00      1.954     0.000     0.526    39.696
  AUG-23-2013 00:42:00      1.972     0.000     0.529    39.699
  AUG-23-2013 00:43:00      1.989     0.000     0.531    39.701
  AUG-23-2013 00:44:00      2.005     0.000     0.534    39.704
  AUG-23-2013 00:45:00      2.022     0.000     0.536    39.706
  AUG-23-2013 00:46:00      2.039     0.000     0.539    39.709
  AUG-23-2013 00:47:00      2.056     0.000     0.541    39.711
  AUG-23-2013 00:48:00      2.077     0.000     0.544    39.714
  AUG-23-2013 00:49:00      2.098     0.000     0.547    39.717
  AUG-23-2013 00:50:00      2.123     0.000     0.550    39.720
  AUG-23-2013 00:51:00      2.148     0.000     0.554    39.724
  AUG-23-2013 00:52:00      2.174     0.000     0.558    39.728
  AUG-23-2013 00:53:00      2.200     0.000     0.561    39.731
  AUG-23-2013 00:54:00      2.230     0.000     0.565    39.735
  AUG-23-2013 00:55:00      2.259     0.000     0.569    39.739
  AUG-23-2013 00:56:00      2.291     0.000     0.574    39.744
  AUG-23-2013 00:57:00      2.323     0.000     0.578    39.748
  AUG-23-2013 00:58:00      2.348     0.000     0.582    39.752
  AUG-23-2013 00:59:00      2.373     0.000     0.585    39.755
  AUG-23-2013 01:00:00      2.426     0.000     0.591    39.761
  AUG-23-2013 01:01:00      2.478     0.000     0.597    39.767
  AUG-23-2013 01:02:00      2.521     0.000     0.604    39.774
  AUG-23-2013 01:03:00      2.563     0.000     0.611    39.781
  AUG-23-2013 01:04:00      2.612     0.000     0.617    39.787
  AUG-23-2013 01:05:00      2.661     0.000     0.623    39.793
  AUG-23-2013 01:06:00      2.715     0.000     0.630    39.800
  AUG-23-2013 01:07:00      2.770     0.000     0.637    39.807
  AUG-23-2013 01:08:00      2.829     0.000     0.643    39.813
  AUG-23-2013 01:09:00      2.888     0.000     0.649    39.819
  AUG-23-2013 01:10:00      2.947     0.000     0.657    39.827
  AUG-23-2013 01:11:00      3.007     0.000     0.664    39.834
  AUG-23-2013 01:12:00      3.091     0.000     0.673    39.843
  AUG-23-2013 01:13:00      3.176     0.000     0.684    39.854
  AUG-23-2013 01:14:00      3.236     0.000     0.693    39.863
  AUG-23-2013 01:15:00      3.297     0.000     0.701    39.871
  AUG-23-2013 01:16:00      3.375     0.000     0.710    39.880
  AUG-23-2013 01:17:00      3.454     0.000     0.720    39.890
  AUG-23-2013 01:18:00      3.538     0.000     0.730    39.900
  AUG-23-2013 01:19:00      3.624     0.000     0.741    39.911
  AUG-23-2013 01:20:00      3.709     0.000     0.751    39.921
  AUG-23-2013 01:21:00      3.794     0.000     0.762    39.932
  AUG-23-2013 01:22:00      3.879     0.000     0.773    39.943
  AUG-23-2013 01:23:00      3.970     0.000     0.784    39.954
  AUG-23-2013 01:24:00      4.073     0.000     0.796    39.966
  AUG-23-2013 01:25:00      4.175     0.000     0.809    39.979
  AUG-23-2013 01:26:00      4.263     0.000     0.821    39.991
  AUG-23-2013 01:27:00      4.348     0.000     0.832    40.002
  AUG-23-2013 01:28:00      4.434     0.000     0.843    40.013
  AUG-23-2013 01:29:00      4.520     0.000     0.854    40.024
  AUG-23-2013 01:30:00      4.606     0.000     0.865    40.035
  AUG-23-2013 01:31:00      4.691     0.000     0.876    40.046
  AUG-23-2013 01:32:00      4.774     0.000     0.887    40.057
  AUG-23-2013 01:33:00      4.855     0.000     0.897    40.067
  AUG-23-2013 01:34:00      4.932     0.000     0.908    40.078
  AUG-23-2013 01:35:00      5.010     0.000     0.918    40.088
  AUG-23-2013 01:36:00      5.095     0.000     0.928    40.098
  AUG-23-2013 01:37:00      5.172     0.000     0.939    40.109
  AUG-23-2013 01:38:00      5.234     0.000     0.949    40.119
  AUG-23-2013 01:39:00      5.295     0.000     0.959    40.129
  AUG-23-2013 01:40:00      5.361     0.000     0.969    40.139
  AUG-23-2013 01:41:00      5.427     0.000     0.978    40.148
  AUG-23-2013 01:42:00      5.495     0.000     0.987    40.157
  AUG-23-2013 01:43:00      5.561     0.000     0.997    40.167
  AUG-23-2013 01:44:00      5.625     0.000     1.006    40.176
  AUG-23-2013 01:45:00      5.685     0.000     1.015    40.185
  AUG-23-2013 01:46:00      5.736     0.000     1.022    40.192
  AUG-23-2013 01:47:00      5.791     0.000     1.030    40.200
  AUG-23-2013 01:48:00      5.855     0.000     1.039    40.209
  AUG-23-2013 01:49:00      5.914     0.000     1.048    40.218
  AUG-23-2013 01:50:00      5.966     0.000     1.056    40.226
  AUG-23-2013 01:51:00      6.017     0.000     1.064    40.234
  AUG-23-2013 01:52:00      6.068     0.000     1.072    40.242
  AUG-23-2013 01:53:00      6.116     0.000     1.080    40.250
  AUG-23-2013 01:54:00      6.158     0.000     1.087    40.257
  AUG-23-2013 01:55:00      6.196     0.000     1.093    40.263
  AUG-23-2013 01:56:00      6.223     0.000     1.098    40.268
  AUG-23-2013 01:57:00      6.247     0.000     1.102    40.272
  AUG-23-2013 01:58:00      6.267     0.000     1.106    40.276
  AUG-23-2013 01:59:00      6.281     0.000     1.109    40.279
  AUG-23-2013 02:00:00      6.281     0.000     1.110    40.280
  AUG-23-2013 02:01:00      6.275     0.000     1.109    40.279
  AUG-23-2013 02:02:00      6.255     0.000     1.106    40.276
  AUG-23-2013 02:03:00      6.232     0.000     1.102    40.272
  AUG-23-2013 02:04:00      6.206     0.000     1.098    40.268
  AUG-23-2013 02:05:00      6.174     0.000     1.093    40.263
  AUG-23-2013 02:06:00      6.132     0.000     1.086    40.256
  AUG-23-2013 02:07:00      6.087     0.000     1.079    40.249
  AUG-23-2013 02:08:00      6.037     0.000     1.071    40.241
  AUG-23-2013 02:09:00      5.986     0.000     1.063    40.233
  AUG-23-2013 02:10:00      5.936     0.000     1.055    40.225
  AUG-23-2013 02:11:00      5.880     0.000     1.047    40.217
  AUG-23-2013 02:12:00      5.818     0.000     1.038    40.208
  AUG-23-2013 02:13:00      5.759     0.000     1.029    40.199
  AUG-23-2013 02:14:00      5.708     0.000     1.021    40.191
  AUG-23-2013 02:15:00      5.654     0.000     1.014    40.184
  AUG-23-2013 02:16:00      5.591     0.000     1.005    40.175
  AUG-23-2013 02:17:00      5.527     0.000     0.996    40.166
  AUG-23-2013 02:18:00      5.460     0.000     0.986    40.156
  AUG-23-2013 02:19:00      5.393     0.000     0.977    40.147
  AUG-23-2013 02:20:00      5.328     0.000     0.968    40.138
  AUG-23-2013 02:21:00      5.265     0.000     0.959    40.129
  AUG-23-2013 02:22:00      5.205     0.000     0.951    40.121
  AUG-23-2013 02:23:00      5.140     0.000     0.942    40.112
  AUG-23-2013 02:24:00      5.056     0.000     0.933    40.103
  AUG-23-2013 02:25:00      4.975     0.000     0.923    40.093
  AUG-23-2013 02:26:00      4.899     0.000     0.914    40.084
  AUG-23-2013 02:27:00      4.822     0.000     0.904    40.074
  AUG-23-2013 02:28:00      4.740     0.000     0.895    40.065
  AUG-23-2013 02:29:00      4.657     0.000     0.885    40.055
  AUG-23-2013 02:30:00      4.573     0.000     0.874    40.044
  AUG-23-2013 02:31:00      4.489     0.000     0.864    40.034
  AUG-23-2013 02:32:00      4.406     0.000     0.853    40.023
  AUG-23-2013 02:33:00      4.322     0.000     0.842    40.012
  AUG-23-2013 02:34:00      4.238     0.000     0.832    40.002
  AUG-23-2013 02:35:00      4.150     0.000     0.821    39.991
  AUG-23-2013 02:36:00      4.046     0.000     0.809    39.979
  AUG-23-2013 02:37:00      3.947     0.000     0.797    39.967
  AUG-23-2013 02:38:00      3.860     0.000     0.785    39.955
  AUG-23-2013 02:39:00      3.777     0.000     0.774    39.944
  AUG-23-2013 02:40:00      3.693     0.000     0.763    39.933
  AUG-23-2013 02:41:00      3.609     0.000     0.753    39.923
  AUG-23-2013 02:42:00      3.526     0.000     0.742    39.912
  AUG-23-2013 02:43:00      3.444     0.000     0.732    39.902
  AUG-23-2013 02:44:00      3.367     0.000     0.723    39.893
  AUG-23-2013 02:45:00      3.295     0.000     0.713    39.883
  AUG-23-2013 02:46:00      3.233     0.000     0.704    39.874
  AUG-23-2013 02:47:00      3.168     0.000     0.696    39.866
  AUG-23-2013 02:48:00      3.090     0.000     0.687    39.857
  AUG-23-2013 02:49:00      3.012     0.000     0.678    39.848
  AUG-23-2013 02:50:00      2.947     0.000     0.668    39.838
  AUG-23-2013 02:51:00      2.888     0.000     0.660    39.830
  AUG-23-2013 02:52:00      2.829     0.000     0.652    39.822
  AUG-23-2013 02:53:00      2.771     0.000     0.645    39.815
  AUG-23-2013 02:54:00      2.715     0.000     0.637    39.807
  AUG-23-2013 02:55:00      2.662     0.000     0.630    39.800
  AUG-23-2013 02:56:00      2.612     0.000     0.623    39.793
  AUG-23-2013 02:57:00      2.564     0.000     0.616    39.786
  AUG-23-2013 02:58:00      2.521     0.000     0.609    39.779
  AUG-23-2013 02:59:00      2.476     0.000     0.602    39.772
  AUG-23-2013 03:00:00      2.426     0.000     0.595    39.765
  AUG-23-2013 03:01:00      2.380     0.000     0.589    39.759
  AUG-23-2013 03:02:00      2.348     0.000     0.583    39.753
  AUG-23-2013 03:03:00      2.321     0.000     0.579    39.749
  AUG-23-2013 03:04:00      2.291     0.000     0.575    39.745
  AUG-23-2013 03:05:00      2.260     0.000     0.571    39.741
  AUG-23-2013 03:06:00      2.230     0.000     0.567    39.737
  AUG-23-2013 03:07:00      2.201     0.000     0.563    39.733
  AUG-23-2013 03:08:00      2.174     0.000     0.559    39.729
  AUG-23-2013 03:09:00      2.149     0.000     0.555    39.725
  AUG-23-2013 03:10:00      2.123     0.000     0.552    39.722
  AUG-23-2013 03:11:00      2.099     0.000     0.548    39.718
  AUG-23-2013 03:12:00      2.077     0.000     0.545    39.715
  AUG-23-2013 03:13:00      2.057     0.000     0.542    39.712
  AUG-23-2013 03:14:00      2.039     0.000     0.540    39.710
  AUG-23-2013 03:15:00      2.022     0.000     0.537    39.707
  AUG-23-2013 03:16:00      2.005     0.000     0.535    39.705
  AUG-23-2013 03:17:00      1.989     0.000     0.532    39.702
  AUG-23-2013 03:18:00      1.972     0.000     0.530    39.700
  AUG-23-2013 03:19:00      1.955     0.000     0.528    39.698
  AUG-23-2013 03:20:00      1.938     0.000     0.525    39.695
  AUG-23-2013 03:21:00      1.921     0.000     0.523    39.693
  AUG-23-2013 03:22:00      1.904     0.000     0.520    39.690
  AUG-23-2013 03:23:00      1.886     0.000     0.518    39.688
  AUG-23-2013 03:24:00      1.866     0.000     0.515    39.685
  AUG-23-2013 03:25:00      1.848     0.000     0.512    39.682
  AUG-23-2013 03:26:00      1.836     0.000     0.510    39.680
  AUG-23-2013 03:27:00      1.826     0.000     0.508    39.678
  AUG-23-2013 03:28:00      1.813     0.000     0.507    39.677
  AUG-23-2013 03:29:00      1.799     0.000     0.505    39.675
  AUG-23-2013 03:30:00      1.786     0.000     0.503    39.673
  AUG-23-2013 03:31:00      1.774     0.000     0.501    39.671
  AUG-23-2013 03:32:00      1.765     0.000     0.499    39.669
  AUG-23-2013 03:33:00      1.756     0.000     0.498    39.668
  AUG-23-2013 03:34:00      1.748     0.000     0.497    39.667
  AUG-23-2013 03:35:00      1.739     0.000     0.495    39.665
  AUG-23-2013 03:36:00      1.729     0.000     0.494    39.664
  AUG-23-2013 03:37:00      1.721     0.000     0.492    39.662
  AUG-23-2013 03:38:00      1.718     0.000     0.492    39.662
  AUG-23-2013 03:39:00      1.716     0.000     0.492    39.662
  AUG-23-2013 03:40:00      1.711     0.000     0.491    39.661
  AUG-23-2013 03:41:00      1.705     0.000     0.490    39.660
  AUG-23-2013 03:42:00      1.697     0.000     0.489    39.659
  AUG-23-2013 03:43:00      1.689     0.000     0.488    39.658
  AUG-23-2013 03:44:00      1.680     0.000     0.486    39.656
  AUG-23-2013 03:45:00      1.672     0.000     0.485    39.655
  AUG-23-2013 03:46:00      1.663     0.000     0.484    39.654
  AUG-23-2013 03:47:00      1.654     0.000     0.482    39.652
  AUG-23-2013 03:48:00      1.644     0.000     0.481    39.651
  AUG-23-2013 03:49:00      1.634     0.000     0.479    39.649
  AUG-23-2013 03:50:00      1.625     0.000     0.478    39.648
  AUG-23-2013 03:51:00      1.617     0.000     0.477    39.647
  AUG-23-2013 03:52:00      1.608     0.000     0.475    39.645
  AUG-23-2013 03:53:00      1.602     0.000     0.474    39.644
  AUG-23-2013 03:54:00      1.600     0.000     0.474    39.644
  AUG-23-2013 03:55:00      1.600     0.000     0.474    39.644
  AUG-23-2013 03:56:00      1.600     0.000     0.474    39.644
  AUG-23-2013 03:57:00      1.600     0.000     0.474    39.644
  AUG-23-2013 03:58:00      1.600     0.000     0.474    39.644
  AUG-23-2013 03:59:00      1.600     0.000     0.474    39.644
  AUG-23-2013 04:00:00      1.600     0.000     0.474    39.644
  AUG-23-2013 04:01:00      1.600     0.000     0.474    39.644
  AUG-23-2013 04:02:00      1.600     0.000     0.474    39.644
  AUG-23-2013 04:03:00      1.600     0.000     0.474    39.644
  AUG-23-2013 04:04:00      1.600     0.000     0.474    39.644
  AUG-23-2013 04:05:00      1.600     0.000     0.474    39.644
  AUG-23-2013 04:06:00      1.600     0.000     0.474    39.644
  AUG-23-2013 04:07:00      1.600     0.000     0.474    39.644
  AUG-23-2013 04:08:00      1.600     0.000     0.474    39.644
  AUG-23-2013 04:09:00      1.600     0.000     0.474    39.644
  AUG-23-2013 04:10:00      1.600     0.000     0.474    39.644
  AUG-23-2013 04:11:00      1.600     0.000     0.474    39.644
  AUG-23-2013 04:12:00      1.600     0.000     0.474    39.644
  AUG-23-2013 04:13:00      1.600     0.000     0.474    39.644
  AUG-23-2013 04:14:00      1.600     0.000     0.474    39.644
  AUG-23-2013 04:15:00      1.600     0.000     0.474    39.644
  AUG-23-2013 04:16:00      1.600     0.000     0.474    39.644
  AUG-23-2013 04:17:00      1.600     0.000     0.474    39.644
  AUG-23-2013 04:18:00      1.600     0.000     0.474    39.644
  AUG-23-2013 04:19:00      1.600     0.000     0.474    39.644
  AUG-23-2013 04:20:00      1.600     0.000     0.474    39.644
  AUG-23-2013 04:21:00      1.600     0.000     0.474    39.644
  AUG-23-2013 04:22:00      1.600     0.000     0.474    39.644
  AUG-23-2013 04:23:00      1.600     0.000     0.474    39.644
  AUG-23-2013 04:24:00      1.600     0.000     0.474    39.644
  AUG-23-2013 04:25:00      1.600     0.000     0.474    39.644
  AUG-23-2013 04:26:00      1.600     0.000     0.474    39.644
  AUG-23-2013 04:27:00      1.600     0.000     0.474    39.644
  AUG-23-2013 04:28:00      1.600     0.000     0.474    39.644
  AUG-23-2013 04:29:00      1.600     0.000     0.474    39.644
  AUG-23-2013 04:30:00      1.600     0.000     0.474    39.644
  AUG-23-2013 04:31:00      1.600     0.000     0.474    39.644
  AUG-23-2013 04:32:00      1.600     0.000     0.474    39.644
  AUG-23-2013 04:33:00      1.600     0.000     0.474    39.644
  AUG-23-2013 04:34:00      1.600     0.000     0.474    39.644
  AUG-23-2013 04:35:00      1.600     0.000     0.474    39.644
  AUG-23-2013 04:36:00      1.600     0.000     0.474    39.644
  AUG-23-2013 04:37:00      1.600     0.000     0.474    39.644
  AUG-23-2013 04:38:00      1.600     0.000     0.474    39.644
  AUG-23-2013 04:39:00      1.600     0.000     0.474    39.644
  AUG-23-2013 04:40:00      1.600     0.000     0.474    39.644
  AUG-23-2013 04:41:00      1.600     0.000     0.474    39.644
  AUG-23-2013 04:42:00      1.600     0.000     0.474    39.644
  AUG-23-2013 04:43:00      1.600     0.000     0.474    39.644
  AUG-23-2013 04:44:00      1.600     0.000     0.474    39.644
  AUG-23-2013 04:45:00      1.600     0.000     0.474    39.644
  AUG-23-2013 04:46:00      1.600     0.000     0.474    39.644
  AUG-23-2013 04:47:00      1.600     0.000     0.474    39.644
  AUG-23-2013 04:48:00      1.600     0.000     0.474    39.644
  AUG-23-2013 04:49:00      1.600     0.000     0.474    39.644
  AUG-23-2013 04:50:00      1.600     0.000     0.474    39.644
  AUG-23-2013 04:51:00      1.600     0.000     0.474    39.644
  AUG-23-2013 04:52:00      1.600     0.000     0.474    39.644
  AUG-23-2013 04:53:00      1.600     0.000     0.474    39.644
  AUG-23-2013 04:54:00      1.600     0.000     0.474    39.644
  AUG-23-2013 04:55:00      1.600     0.000     0.474    39.644
  AUG-23-2013 04:56:00      1.600     0.000     0.474    39.644
  AUG-23-2013 04:57:00      1.600     0.000     0.474    39.644
  AUG-23-2013 04:58:00      1.600     0.000     0.474    39.644
  AUG-23-2013 04:59:00      1.600     0.000     0.474    39.644
  AUG-23-2013 05:00:00      1.600     0.000     0.474    39.644
  
  
  <<< Node 2 >>>
  ----------------------------------------------------------------
                           Inflow  Flooding     Depth      Head
  Date        Time            CMS       CMS    meters    meters
  ----------------------------------------------------------------
  AUG-23-2013 00:01:00      1.595     0.000     0.582    30.042
  AUG-23-2013 00:02:00      1.600     0.000     0.600    30.060
  AUG-23-2013 00:03:00      1.601     0.000     0.613    30.073
  AUG-23-2013 00:04:00      1.600     0.000     0.623    30.083
  AUG-23-2013 00:05:00      1.600     0.000     0.629    30.089
  AUG-23-2013 00:06:00      1.600     0.000     0.634    30.094
  AUG-23-2013 00:07:00      1.600     0.000     0.638    30.098
  AUG-23-2013 00:08:00      1.603     0.000     0.640    30.100
  AUG-23-2013 00:09:00      1.610     0.000     0.642    30.102
  AUG-23-2013 00:10:00      1.619     0.000     0.644    30.104
  AUG-23-2013 00:11:00      1.628     0.000     0.646    30.106
  AUG-23-2013 00:12:00      1.637     0.000     0.648    30.108
  AUG-23-2013 00:13:00      1.647     0.000     0.650    30.110
  AUG-23-2013 00:14:00      1.658     0.000     0.652    30.112
  AUG-23-2013 00:15:00      1.667     0.000     0.654    30.114
  AUG-23-2013 00:16:00      1.675     0.000     0.656    30.116
  AUG-23-2013 00:17:00      1.683     0.000     0.658    30.118
  AUG-23-2013 00:18:00      1.692     0.000     0.660    30.120
  AUG-23-2013 00:19:00      1.700     0.000     0.662    30.122
  AUG-23-2013 00:20:00      1.707     0.000     0.664    30.124
  AUG-23-2013 00:21:00      1.714     0.000     0.666    30.126
  AUG-23-2013 00:22:00      1.718     0.000     0.668    30.128
  AUG-23-2013 00:23:00      1.719     0.000     0.669    30.129
  AUG-23-2013 00:24:00      1.722     0.000     0.670    30.130
  AUG-23-2013 00:25:00      1.731     0.000     0.671    30.131
  AUG-23-2013 00:26:00      1.742     0.000     0.672    30.132
  AUG-23-2013 00:27:00      1.751     0.000     0.674    30.134
  AUG-23-2013 00:28:00      1.759     0.000     0.676    30.136
  AUG-23-2013 00:29:00      1.768     0.000     0.678    30.138
  AUG-23-2013 00:30:00      1.778     0.000     0.680    30.140
  AUG-23-2013 00:31:00      1.790     0.000     0.682    30.142
  AUG-23-2013 00:32:00      1.804     0.000     0.684    30.144
  AUG-23-2013 00:33:00      1.818     0.000     0.687    30.147
  AUG-23-2013 00:34:00      1.831     0.000     0.689    30.149
  AUG-23-2013 00:35:00      1.840     0.000     0.692    30.152
  AUG-23-2013 00:36:00      1.852     0.000     0.694    30.154
  AUG-23-2013 00:37:00      1.871     0.000     0.697    30.157
  AUG-23-2013 00:38:00      1.893     0.000     0.700    30.160
  AUG-23-2013 00:39:00      1.911     0.000     0.704    30.164
  AUG-23-2013 00:40:00      1.928     0.000     0.708    30.168
  AUG-23-2013 00:41:00      1.944     0.000     0.712    30.172
  AUG-23-2013 00:42:00      1.961     0.000     0.715    30.175
  AUG-23-2013 00:43:00      1.978     0.000     0.719    30.179
  AUG-23-2013 00:44:00      1.995     0.000     0.723    30.183
  AUG-23-2013 00:45:00      2.011     0.000     0.727    30.187
  AUG-23-2013 00:46:00      2.028     0.000     0.730    30.190
  AUG-23-2013 00:47:00      2.045     0.000     0.734    30.194
  AUG-23-2013 00:48:00      2.064     0.000     0.738    30.198
  AUG-23-2013 00:49:00      2.085     0.000     0.742    30.202
  AUG-23-2013 00:50:00      2.108     0.000     0.746    30.206
  AUG-23-2013 00:51:00      2.133     0.000     0.751    30.211
  AUG-23-2013 00:52:00      2.158     0.000     0.755    30.215
  AUG-23-2013 00:53:00      2.184     0.000     0.761    30.221
  AUG-23-2013 00:54:00      2.211     0.000     0.766    30.226
  AUG-23-2013 00:55:00      2.241     0.000     0.771    30.231
  AUG-23-2013 00:56:00      2.272     0.000     0.777    30.237
  AUG-23-2013 00:57:00      2.304     0.000     0.783    30.243
  AUG-23-2013 00:58:00      2.333     0.000     0.790    30.250
  AUG-23-2013 00:59:00      2.359     0.000     0.796    30.256
  AUG-23-2013 01:00:00      2.392     0.000     0.803    30.263
  AUG-23-2013 01:01:00      2.454     0.000     0.810    30.270
  AUG-23-2013 01:02:00      2.486     0.000     0.818    30.278
  AUG-23-2013 01:03:00      2.537     0.000     0.827    30.287
  AUG-23-2013 01:04:00      2.585     0.000     0.837    30.297
  AUG-23-2013 01:05:00      2.632     0.000     0.847    30.307
  AUG-23-2013 01:06:00      2.683     0.000     0.858    30.318
  AUG-23-2013 01:07:00      2.750     0.000     0.869    30.329
  AUG-23-2013 01:08:00      2.797     0.000     0.881    30.341
  AUG-23-2013 01:09:00      2.855     0.000     0.893    30.353
  AUG-23-2013 01:10:00      2.911     0.000     0.905    30.365
  AUG-23-2013 01:11:00      2.970     0.000     0.918    30.378
  AUG-23-2013 01:12:00      3.042     0.000     0.931    30.391
  AUG-23-2013 01:13:00      3.125     0.000     0.946    30.406
  AUG-23-2013 01:14:00      3.198     0.000     0.962    30.422
  AUG-23-2013 01:15:00      3.259     0.000     0.979    30.439
  AUG-23-2013 01:16:00      3.329     0.000     0.996    30.456
  AUG-23-2013 01:17:00      3.407     0.000     1.014    30.474
  AUG-23-2013 01:18:00      3.489     0.000     1.033    30.493
  AUG-23-2013 01:19:00      3.574     0.000     1.053    30.513
  AUG-23-2013 01:20:00      3.659     0.000     1.075    30.535
  AUG-23-2013 01:21:00      3.744     0.000     1.099    30.559
  AUG-23-2013 01:22:00      3.830     0.000     1.124    30.584
  AUG-23-2013 01:23:00      3.918     0.000     1.150    30.610
  AUG-23-2013 01:24:00      4.015     0.000     1.179    30.639
  AUG-23-2013 01:25:00      4.117     0.000     1.212    30.672
  AUG-23-2013 01:26:00      4.212     0.000     1.250    30.710
  AUG-23-2013 01:27:00      4.300     0.000     1.293    30.753
  AUG-23-2013 01:28:00      4.386     0.000     1.345    30.805
  AUG-23-2013 01:29:00      4.471     0.549     1.658    31.118
  AUG-23-2013 01:30:00      4.558     0.557     2.000    31.460
  AUG-23-2013 01:31:00      4.645     0.606     2.000    31.460
  AUG-23-2013 01:32:00      4.729     0.738     2.000    31.460
  AUG-23-2013 01:33:00      4.812     0.803     2.000    31.460
  AUG-23-2013 01:34:00      4.891     0.865     2.000    31.460
  AUG-23-2013 01:35:00      4.969     0.926     2.000    31.460
  AUG-23-2013 01:36:00      5.051     1.052     2.000    31.460
  AUG-23-2013 01:37:00      5.132     1.114     2.000    31.460
  AUG-23-2013 01:38:00      5.200     1.167     2.000    31.460
  AUG-23-2013 01:39:00      5.254     1.257     2.000    31.460
  AUG-23-2013 01:40:00      5.328     1.312     2.000    31.460
  AUG-23-2013 01:41:00      5.394     1.362     2.000    31.460
  AUG-23-2013 01:42:00      5.460     1.459     2.000    31.460
  AUG-23-2013 01:43:00      5.527     1.509     2.000    31.460
  AUG-23-2013 01:44:00      5.593     1.558     2.000    31.460
  AUG-23-2013 01:45:00      5.655     1.648     2.000    31.460
  AUG-23-2013 01:46:00      5.710     1.688     2.000    31.460
  AUG-23-2013 01:47:00      5.762     1.765     2.000    31.460
  AUG-23-2013 01:48:00      5.821     1.807     2.000    31.460
  AUG-23-2013 01:49:00      5.883     1.851     2.000    31.460
  AUG-23-2013 01:50:00      5.940     1.932     2.000    31.460
  AUG-23-2013 01:51:00      5.990     1.968     2.000    31.460
  AUG-23-2013 01:52:00      6.040     2.037     2.000    31.460
  AUG-23-2013 01:53:00      6.090     2.072     2.000    31.460
  AUG-23-2013 01:54:00      6.136     2.135     2.000    31.460
  AUG-23-2013 01:55:00      6.176     2.162     2.000    31.460
  AUG-23-2013 01:56:00      6.208     2.184     2.000    31.460
  AUG-23-2013 01:57:00      6.233     2.220     2.000    31.460
  AUG-23-2013 01:58:00      6.256     2.236     2.000    31.460
  AUG-23-2013 01:59:00      6.274     2.261     2.000    31.460
  AUG-23-2013 02:00:00      6.282     2.267     2.000    31.460
  AUG-23-2013 02:01:00      6.280     2.264     2.000    31.460
  AUG-23-2013 02:02:00      6.267     2.255     2.000    31.460
  AUG-23-2013 02:03:00      6.246     2.227     2.000    31.460
  AUG-23-2013 02:04:00      6.222     2.210     2.000    31.460
  AUG-23-2013 02:05:00      6.194     2.170     2.000    31.460
  AUG-23-2013 02:06:00      6.156     2.144     2.000    31.460
  AUG-23-2013 02:07:00      6.112     2.083     2.000    31.460
  AUG-23-2013 02:08:00      6.065     2.050     2.000    31.460
  AUG-23-2013 02:09:00      6.014     2.015     2.000    31.460
  AUG-23-2013 02:10:00      5.962     1.942     2.000    31.460
  AUG-23-2013 02:11:00      5.910     1.905     2.000    31.460
  AUG-23-2013 02:12:00      5.852     1.823     2.000    31.460
  AUG-23-2013 02:13:00      5.789     1.778     2.000    31.460
  AUG-23-2013 02:14:00      5.733     1.737     2.000    31.460
  AUG-23-2013 02:15:00      5.683     1.662     2.000    31.460
  AUG-23-2013 02:16:00      5.625     1.621     2.000    31.460
  AUG-23-2013 02:17:00      5.560     1.526     2.000    31.460
  AUG-23-2013 02:18:00      5.494     1.478     2.000    31.460
  AUG-23-2013 02:19:00      5.428     1.429     2.000    31.460
  AUG-23-2013 02:20:00      5.361     1.330     2.000    31.460
  AUG-23-2013 02:21:00      5.297     1.282     2.000    31.460
  AUG-23-2013 02:22:00      5.235     1.235     2.000    31.460
  AUG-23-2013 02:23:00      5.173     1.139     2.000    31.460
  AUG-23-2013 02:24:00      5.093     1.074     2.000    31.460
  AUG-23-2013 02:25:00      5.011     1.010     2.000    31.460
  AUG-23-2013 02:26:00      4.935     0.894     2.000    31.460
  AUG-23-2013 02:27:00      4.859     0.833     2.000    31.460
  AUG-23-2013 02:28:00      4.781     0.772     2.000    31.460
  AUG-23-2013 02:29:00      4.701     0.710     2.000    31.460
  AUG-23-2013 02:30:00      4.618     0.578     2.000    31.460
  AUG-23-2013 02:31:00      4.535     0.511     2.000    31.460
  AUG-23-2013 02:32:00      4.451     0.443     2.000    31.460
  AUG-23-2013 02:33:00      4.368     0.374     2.000    31.460
  AUG-23-2013 02:34:00      4.283     0.236     2.000    31.460
  AUG-23-2013 02:35:00      4.198     0.162     2.000    31.460
  AUG-23-2013 02:36:00      4.101     0.079     2.000    31.460
  AUG-23-2013 02:37:00      4.007     0.000     1.905    31.365
  AUG-23-2013 02:38:00      3.917     0.000     1.653    31.113
  AUG-23-2013 02:39:00      3.830     0.000     1.478    30.938
  AUG-23-2013 02:40:00      3.746     0.000     1.417    30.877
  AUG-23-2013 02:41:00      3.660     0.000     1.396    30.856
  AUG-23-2013 02:42:00      3.569     0.000     1.372    30.832
  AUG-23-2013 02:43:00      3.490     0.000     1.338    30.798
  AUG-23-2013 02:44:00      3.411     0.000     1.300    30.760
  AUG-23-2013 02:45:00      3.337     0.000     1.261    30.721
  AUG-23-2013 02:46:00      3.270     0.000     1.221    30.681
  AUG-23-2013 02:47:00      3.206     0.000     1.184    30.644
  AUG-23-2013 02:48:00      3.135     0.000     1.148    30.608
  AUG-23-2013 02:49:00      3.058     0.000     1.114    30.574
  AUG-23-2013 02:50:00      2.987     0.000     1.082    30.542
  AUG-23-2013 02:51:00      2.925     0.000     1.052    30.512
  AUG-23-2013 02:52:00      2.865     0.000     1.025    30.485
  AUG-23-2013 02:53:00      2.807     0.000     1.001    30.461
  AUG-23-2013 02:54:00      2.750     0.000     0.978    30.438
  AUG-23-2013 02:55:00      2.696     0.000     0.958    30.418
  AUG-23-2013 02:56:00      2.644     0.000     0.939    30.399
  AUG-23-2013 02:57:00      2.595     0.000     0.922    30.382
  AUG-23-2013 02:58:00      2.548     0.000     0.907    30.367
  AUG-23-2013 02:59:00      2.508     0.000     0.892    30.352
  AUG-23-2013 03:00:00      2.454     0.000     0.879    30.339
  AUG-23-2013 03:01:00      2.408     0.000     0.866    30.326
  AUG-23-2013 03:02:00      2.370     0.000     0.853    30.313
  AUG-23-2013 03:03:00      2.335     0.000     0.842    30.302
  AUG-23-2013 03:04:00      2.307     0.000     0.832    30.292
  AUG-23-2013 03:05:00      2.279     0.000     0.823    30.283
  AUG-23-2013 03:06:00      2.248     0.000     0.814    30.274
  AUG-23-2013 03:07:00      2.218     0.000     0.806    30.266
  AUG-23-2013 03:08:00      2.190     0.000     0.799    30.259
  AUG-23-2013 03:09:00      2.164     0.000     0.792    30.252
  AUG-23-2013 03:10:00      2.139     0.000     0.785    30.245
  AUG-23-2013 03:11:00      2.114     0.000     0.779    30.239
  AUG-23-2013 03:12:00      2.090     0.000     0.773    30.233
  AUG-23-2013 03:13:00      2.069     0.000     0.767    30.227
  AUG-23-2013 03:14:00      2.050     0.000     0.761    30.221
  AUG-23-2013 03:15:00      2.032     0.000     0.756    30.216
  AUG-23-2013 03:16:00      2.015     0.000     0.752    30.212
  AUG-23-2013 03:17:00      1.999     0.000     0.747    30.207
  AUG-23-2013 03:18:00      1.982     0.000     0.743    30.203
  AUG-23-2013 03:19:00      1.965     0.000     0.739    30.199
  AUG-23-2013 03:20:00      1.948     0.000     0.735    30.195
  AUG-23-2013 03:21:00      1.932     0.000     0.731    30.191
  AUG-23-2013 03:22:00      1.915     0.000     0.728    30.188
  AUG-23-2013 03:23:00      1.898     0.000     0.724    30.184
  AUG-23-2013 03:24:00      1.879     0.000     0.720    30.180
  AUG-23-2013 03:25:00      1.860     0.000     0.716    30.176
  AUG-23-2013 03:26:00      1.843     0.000     0.712    30.172
  AUG-23-2013 03:27:00      1.832     0.000     0.708    30.168
  AUG-23-2013 03:28:00      1.821     0.000     0.705    30.165
  AUG-23-2013 03:29:00      1.809     0.000     0.702    30.162
  AUG-23-2013 03:30:00      1.795     0.000     0.699    30.159
  AUG-23-2013 03:31:00      1.782     0.000     0.696    30.156
  AUG-23-2013 03:32:00      1.771     0.000     0.693    30.153
  AUG-23-2013 03:33:00      1.762     0.000     0.690    30.150
  AUG-23-2013 03:34:00      1.753     0.000     0.687    30.147
  AUG-23-2013 03:35:00      1.745     0.000     0.685    30.145
  AUG-23-2013 03:36:00      1.735     0.000     0.683    30.143
  AUG-23-2013 03:37:00      1.726     0.000     0.681    30.141
  AUG-23-2013 03:38:00      1.719     0.000     0.678    30.138
  AUG-23-2013 03:39:00      1.717     0.000     0.677    30.137
  AUG-23-2013 03:40:00      1.715     0.000     0.675    30.135
  AUG-23-2013 03:41:00      1.710     0.000     0.674    30.134
  AUG-23-2013 03:42:00      1.702     0.000     0.673    30.133
  AUG-23-2013 03:43:00      1.694     0.000     0.671    30.131
  AUG-23-2013 03:44:00      1.686     0.000     0.670    30.130
  AUG-23-2013 03:45:00      1.678     0.000     0.668    30.128
  AUG-23-2013 03:46:00      1.669     0.000     0.666    30.126
  AUG-23-2013 03:47:00      1.660     0.000     0.665    30.125
  AUG-23-2013 03:48:00      1.651     0.000     0.663    30.123
  AUG-23-2013 03:49:00      1.641     0.000     0.661    30.121
  AUG-23-2013 03:50:00      1.631     0.000     0.659    30.119
  AUG-23-2013 03:51:00      1.622     0.000     0.657    30.117
  AUG-23-2013 03:52:00      1.614     0.000     0.655    30.115
  AUG-23-2013 03:53:00      1.606     0.000     0.653    30.113
  AUG-23-2013 03:54:00      1.601     0.000     0.651    30.111
  AUG-23-2013 03:55:00      1.599     0.000     0.649    30.109
  AUG-23-2013 03:56:00      1.600     0.000     0.648    30.108
  AUG-23-2013 03:57:00      1.600     0.000     0.647    30.107
  AUG-23-2013 03:58:00      1.600     0.000     0.646    30.106
  AUG-23-2013 03:59:00      1.600     0.000     0.646    30.106
  AUG-23-2013 04:00:00      1.600     0.000     0.646    30.106
  AUG-23-2013 04:01:00      1.600     0.000     0.646    30.106
  AUG-23-2013 04:02:00      1.600     0.000     0.645    30.105
  AUG-23-2013 04:03:00      1.600     0.000     0.645    30.105
  AUG-23-2013 04:04:00      1.600     0.000     0.645    30.105
  AUG-23-2013 04:05:00      1.600     0.000     0.645    30.105
  AUG-23-2013 04:06:00      1.600     0.000     0.645    30.105
  AUG-23-2013 04:07:00      1.600     0.000     0.645    30.105
  AUG-23-2013 04:08:00      1.600     0.000     0.645    30.105
  AUG-23-2013 04:09:00      1.600     0.000     0.645    30.105
  AUG-23-2013 04:10:00      1.600     0.000     0.645    30.105
  AUG-23-2013 04:11:00      1.600     0.000     0.645    30.105
  AUG-23-2013 04:12:00      1.600     0.000     0.645    30.105
  AUG-23-2013 04:13:00      1.600     0.000     0.645    30.105
  AUG-23-2013 04:14:00      1.600     0.000     0.645    30.105
  AUG-23-2013 04:15:00      1.600     0.000     0.645    30.105
  AUG-23-2013 04:16:00      1.600     0.000     0.645    30.105
  AUG-23-2013 04:17:00      1.600     0.000     0.645    30.105
  AUG-23-2013 04:18:00      1.600     0.000     0.645    30.105
  AUG-23-2013 04:19:00      1.600     0.000     0.645    30.105
  AUG-23-2013 04:20:00      1.600     0.000     0.645    30.105
  AUG-23-2013 04:21:00      1.600     0.000     0.645    30.105
  AUG-23-2013 04:22:00      1.600     0.000     0.645    30.105
  AUG-23-2013 04:23:00      1.600     0.000     0.645    30.105
  AUG-23-2013 04:24:00      1.600     0.000     0.645    30.105
  AUG-23-2013 04:25:00      1.600     0.000     0.645    30.105
  AUG-23-2013 04:26:00      1.600     0.000     0.645    30.105
  AUG-23-2013 04:27:00      1.600     0.000     0.645    30.105
  AUG-23-2013 04:28:00      1.600     0.000     0.645    30.105
  AUG-23-2013 04:29:00      1.600     0.000     0.645    30.105
  AUG-23-2013 04:30:00      1.600     0.000     0.645    30.105
  AUG-23-2013 04:31:00      1.600     0.000     0.645    30.105
  AUG-23-2013 04:32:00      1.600     0.000     0.645    30.105
  AUG-23-2013 04:33:00      1.600     0.000     0.645    30.105
  AUG-23-2013 04:34:00      1.600     0.000     0.645    30.105
  AUG-23-2013 04:35:00      1.600     0.000     0.645    30.105
  AUG-23-2013 04:36:00      1.600     0.000     0.645    30.105
  AUG-23-2013 04:37:00      1.600     0.000     0.645    30.105
  AUG-23-2013 04:38:00      1.600     0.000     0.645    30.105
  AUG-23-2013 04:39:00      1.600     0.000     0.645    30.105
  AUG-23-2013 04:40:00      1.600     0.000     0.645    30.105
  AUG-23-2013 04:41:00      1.600     0.000     0.645    30.105
  AUG-23-2013 04:42:00      1.600     0.000     0.645    30.105
  AUG-23-2013 04:43:00      1.600     0.000     0.645    30.105
  AUG-23-2013 04:44:00      1.600     0.000     0.645    30.105
  AUG-23-2013 04:45:00      1.600     0.000     0.645    30.105
  AUG-23-2013 04:46:00      1.600     0.000     0.645    30.105
  AUG-23-2013 04:47:00      1.600     0.000     0.645    30.105
  AUG-23-2013 04:48:00      1.600     0.000     0.645    30.105
  AUG-23-2013 04:49:00      1.600     0.000     0.645    30.105
  AUG-23-2013 04:50:00      1.600     0.000     0.645    30.105
  AUG-23-2013 04:51:00      1.600     0.000     0.645    30.105
  AUG-23-2013 04:52:00      1.600     0.000     0.645    30.105
  AUG-23-2013 04:53:00      1.600     0.000     0.645    30.105
  AUG-23-2013 04:54:00      1.600     0.000     0.645    30.105
  AUG-23-2013 04:55:00      1.600     0.000     0.645    30.105
  AUG-23-2013 04:56:00      1.600     0.000     0.645    30.105
  AUG-23-2013 04:57:00      1.600     0.000     0.645    30.105
  AUG-23-2013 04:58:00      1.600     0.000     0.645    30.105
  AUG-23-2013 04:59:00      1.600     0.000     0.645    30.105
  AUG-23-2013 05:00:00      1.600     0.000     0.645    30.105
  
  
  <<< Node 3 >>>
  ----------------------------------------------------------------
                           Inflow  Flooding     Depth      Head
  Date        Time            CMS       CMS    meters    meters
  ----------------------------------------------------------------
  AUG-23-2013 00:01:00      1.292     0.000     0.572    24.172
  AUG-23-2013 00:02:00      1.366     0.000     0.590    24.190
  AUG-23-2013 00:03:00      1.430     0.000     0.606    24.206
  AUG-23-2013 00:04:00      1.479     0.000     0.617    24.217
  AUG-23-2013 00:05:00      1.515     0.000     0.625    24.225
  AUG-23-2013 00:06:00      1.540     0.000     0.631    24.231
  AUG-23-2013 00:07:00      1.558     0.000     0.636    24.236
  AUG-23-2013 00:08:00      1.571     0.000     0.638    24.238
  AUG-23-2013 00:09:00      1.581     0.000     0.641    24.241
  AUG-23-2013 00:10:00      1.589     0.000     0.643    24.243
  AUG-23-2013 00:11:00      1.597     0.000     0.644    24.244
  AUG-23-2013 00:12:00      1.606     0.000     0.646    24.246
  AUG-23-2013 00:13:00      1.614     0.000     0.648    24.248
  AUG-23-2013 00:14:00      1.623     0.000     0.650    24.250
  AUG-23-2013 00:15:00      1.633     0.000     0.653    24.253
  AUG-23-2013 00:16:00      1.642     0.000     0.655    24.255
  AUG-23-2013 00:17:00      1.651     0.000     0.657    24.257
  AUG-23-2013 00:18:00      1.660     0.000     0.659    24.259
  AUG-23-2013 00:19:00      1.669     0.000     0.661    24.261
  AUG-23-2013 00:20:00      1.677     0.000     0.663    24.263
  AUG-23-2013 00:21:00      1.686     0.000     0.665    24.265
  AUG-23-2013 00:22:00      1.694     0.000     0.667    24.267
  AUG-23-2013 00:23:00      1.701     0.000     0.668    24.268
  AUG-23-2013 00:24:00      1.706     0.000     0.669    24.269
  AUG-23-2013 00:25:00      1.711     0.000     0.670    24.270
  AUG-23-2013 00:26:00      1.716     0.000     0.672    24.272
  AUG-23-2013 00:27:00      1.723     0.000     0.673    24.273
  AUG-23-2013 00:28:00      1.731     0.000     0.675    24.275
  AUG-23-2013 00:29:00      1.739     0.000     0.677    24.277
  AUG-23-2013 00:30:00      1.747     0.000     0.679    24.279
  AUG-23-2013 00:31:00      1.755     0.000     0.681    24.281
  AUG-23-2013 00:32:00      1.765     0.000     0.683    24.283
  AUG-23-2013 00:33:00      1.776     0.000     0.685    24.285
  AUG-23-2013 00:34:00      1.787     0.000     0.688    24.288
  AUG-23-2013 00:35:00      1.799     0.000     0.690    24.290
  AUG-23-2013 00:36:00      1.811     0.000     0.693    24.293
  AUG-23-2013 00:37:00      1.823     0.000     0.696    24.296
  AUG-23-2013 00:38:00      1.836     0.000     0.699    24.299
  AUG-23-2013 00:39:00      1.852     0.000     0.702    24.302
  AUG-23-2013 00:40:00      1.868     0.000     0.706    24.306
  AUG-23-2013 00:41:00      1.885     0.000     0.710    24.310
  AUG-23-2013 00:42:00      1.901     0.000     0.713    24.313
  AUG-23-2013 00:43:00      1.918     0.000     0.717    24.317
  AUG-23-2013 00:44:00      1.935     0.000     0.721    24.321
  AUG-23-2013 00:45:00      1.952     0.000     0.724    24.324
  AUG-23-2013 00:46:00      1.969     0.000     0.728    24.328
  AUG-23-2013 00:47:00      1.986     0.000     0.732    24.332
  AUG-23-2013 00:48:00      2.003     0.000     0.736    24.336
  AUG-23-2013 00:49:00      2.020     0.000     0.740    24.340
  AUG-23-2013 00:50:00      2.038     0.000     0.744    24.344
  AUG-23-2013 00:51:00      2.058     0.000     0.748    24.348
  AUG-23-2013 00:52:00      2.079     0.000     0.753    24.353
  AUG-23-2013 00:53:00      2.102     0.000     0.758    24.358
  AUG-23-2013 00:54:00      2.125     0.000     0.763    24.363
  AUG-23-2013 00:55:00      2.149     0.000     0.768    24.368
  AUG-23-2013 00:56:00      2.175     0.000     0.774    24.374
  AUG-23-2013 00:57:00      2.203     0.000     0.780    24.380
  AUG-23-2013 00:58:00      2.231     0.000     0.786    24.386
  AUG-23-2013 00:59:00      2.260     0.000     0.791    24.391
  AUG-23-2013 01:00:00      2.288     0.000     0.796    24.396
  AUG-23-2013 01:01:00      2.321     0.000     0.802    24.402
  AUG-23-2013 01:02:00      2.353     0.000     0.808    24.408
  AUG-23-2013 01:03:00      2.389     0.000     0.814    24.414
  AUG-23-2013 01:04:00      2.429     0.000     0.821    24.421
  AUG-23-2013 01:05:00      2.471     0.000     0.829    24.429
  AUG-23-2013 01:06:00      2.515     0.000     0.837    24.437
  AUG-23-2013 01:07:00      2.567     0.000     0.846    24.446
  AUG-23-2013 01:08:00      2.617     0.000     0.854    24.454
  AUG-23-2013 01:09:00      2.669     0.000     0.863    24.463
  AUG-23-2013 01:10:00      2.720     0.000     0.871    24.471
  AUG-23-2013 01:11:00      2.773     0.000     0.880    24.480
  AUG-23-2013 01:12:00      2.828     0.000     0.889    24.489
  AUG-23-2013 01:13:00      2.887     0.000     0.899    24.499
  AUG-23-2013 01:14:00      2.950     0.000     0.909    24.509
  AUG-23-2013 01:15:00      3.014     0.000     0.919    24.519
  AUG-23-2013 01:16:00      3.077     0.000     0.929    24.529
  AUG-23-2013 01:17:00      3.141     0.000     0.939    24.539
  AUG-23-2013 01:18:00      3.207     0.000     0.949    24.549
  AUG-23-2013 01:19:00      3.277     0.000     0.959    24.559
  AUG-23-2013 01:20:00      3.348     0.000     0.970    24.570
  AUG-23-2013 01:21:00      3.420     0.000     0.980    24.580
  AUG-23-2013 01:22:00      3.492     0.000     0.991    24.591
  AUG-23-2013 01:23:00      3.563     0.000     1.001    24.601
  AUG-23-2013 01:24:00      3.633     0.000     1.011    24.611
  AUG-23-2013 01:25:00      3.703     0.000     1.020    24.620
  AUG-23-2013 01:26:00      3.771     0.000     1.029    24.629
  AUG-23-2013 01:27:00      3.833     0.000     1.038    24.638
  AUG-23-2013 01:28:00      3.875     0.000     1.043    24.643
  AUG-23-2013 01:29:00      3.921     0.000     1.050    24.650
  AUG-23-2013 01:30:00      3.995     0.000     1.059    24.659
  AUG-23-2013 01:31:00      4.013     0.000     1.062    24.662
  AUG-23-2013 01:32:00      4.014     0.000     1.062    24.662
  AUG-23-2013 01:33:00      4.015     0.000     1.062    24.662
  AUG-23-2013 01:34:00      4.015     0.000     1.062    24.662
  AUG-23-2013 01:35:00      4.015     0.000     1.062    24.662
  AUG-23-2013 01:36:00      4.015     0.000     1.062    24.662
  AUG-23-2013 01:37:00      4.015     0.000     1.062    24.662
  AUG-23-2013 01:38:00      4.015     0.000     1.062    24.662
  AUG-23-2013 01:39:00      4.015     0.000     1.062    24.662
  AUG-23-2013 01:40:00      4.015     0.000     1.062    24.662
  AUG-23-2013 01:41:00      4.015     0.000     1.062    24.662
  AUG-23-2013 01:42:00      4.015     0.000     1.062    24.662
  AUG-23-2013 01:43:00      4.015     0.000     1.062    24.662
  AUG-23-2013 01:44:00      4.015     0.000     1.062    24.662
  AUG-23-2013 01:45:00      4.015     0.000     1.062    24.662
  AUG-23-2013 01:46:00      4.015     0.000     1.062    24.662
  AUG-23-2013 01:47:00      4.015     0.000     1.062    24.662
  AUG-23-2013 01:48:00      4.015     0.000     1.062    24.662
  AUG-23-2013 01:49:00      4.015     0.000     1.062    24.662
  AUG-23-2013 01:50:00      4.015     0.000     1.062    24.662
  AUG-23-2013 01:51:00      4.015     0.000     1.062    24.662
  AUG-23-2013 01:52:00      4.015     0.000     1.062    24.662
  AUG-23-2013 01:53:00      4.015     0.000     1.062    24.662
  AUG-23-2013 01:54:00      4.015     0.000     1.062    24.662
  AUG-23-2013 01:55:00      4.015     0.000     1.062    24.662
  AUG-23-2013 01:56:00      4.015     0.000     1.062    24.662
  AUG-23-2013 01:57:00      4.015     0.000     1.062    24.662
  AUG-23-2013 01:58:00      4.015     0.000     1.062    24.662
  AUG-23-2013 01:59:00      4.015     0.000     1.062    24.662
  AUG-23-2013 02:00:00      4.015     0.000     1.062    24.662
  AUG-23-2013 02:01:00      4.015     0.000     1.062    24.662
  AUG-23-2013 02:02:00      4.015     0.000     1.062    24.662
  AUG-23-2013 02:03:00      4.015     0.000     1.062    24.662
  AUG-23-2013 02:04:00      4.015     0.000     1.062    24.662
  AUG-23-2013 02:05:00      4.015     0.000     1.062    24.662
  AUG-23-2013 02:06:00      4.015     0.000     1.062    24.662
  AUG-23-2013 02:07:00      4.015     0.000     1.062    24.662
  AUG-23-2013 02:08:00      4.015     0.000     1.062    24.662
  AUG-23-2013 02:09:00      4.015     0.000     1.062    24.662
  AUG-23-2013 02:10:00      4.015     0.000     1.062    24.662
  AUG-23-2013 02:11:00      4.015     0.000     1.062    24.662
  AUG-23-2013 02:12:00      4.015     0.000     1.062    24.662
  AUG-23-2013 02:13:00      4.015     0.000     1.062    24.662
  AUG-23-2013 02:14:00      4.015     0.000     1.062    24.662
  AUG-23-2013 02:15:00      4.015     0.000     1.062    24.662
  AUG-23-2013 02:16:00      4.015     0.000     1.062    24.662
  AUG-23-2013 02:17:00      4.015     0.000     1.062    24.662
  AUG-23-2013 02:18:00      4.015     0.000     1.062    24.662
  AUG-23-2013 02:19:00      4.015     0.000     1.062    24.662
  AUG-23-2013 02:20:00      4.015     0.000     1.062    24.662
  AUG-23-2013 02:21:00      4.015     0.000     1.062    24.662
  AUG-23-2013 02:22:00      4.015     0.000     1.062    24.662
  AUG-23-2013 02:23:00      4.015     0.000     1.062    24.662
  AUG-23-2013 02:24:00      4.015     0.000     1.062    24.662
  AUG-23-2013 02:25:00      4.015     0.000     1.062    24.662
  AUG-23-2013 02:26:00      4.015     0.000     1.062    24.662
  AUG-23-2013 02:27:00      4.015     0.000     1.062    24.662
  AUG-23-2013 02:28:00      4.015     0.000     1.062    24.662
  AUG-23-2013 02:29:00      4.015     0.000     1.062    24.662
  AUG-23-2013 02:30:00      4.015     0.000     1.062    24.662
  AUG-23-2013 02:31:00      4.015     0.000     1.062    24.662
  AUG-23-2013 02:32:00      4.015     0.000     1.062    24.662
  AUG-23-2013 02:33:00      4.015     0.000     1.062    24.662
  AUG-23-2013 02:34:00      4.015     0.000     1.062    24.662
  AUG-23-2013 02:35:00      4.015     0.000     1.062    24.662
  AUG-23-2013 02:36:00      4.015     0.000     1.062    24.662
  AUG-23-2013 02:37:00      3.993     0.000     1.059    24.659
  AUG-23-2013 02:38:00      3.926     0.000     1.050    24.650
  AUG-23-2013 02:39:00      3.868     0.000     1.042    24.642
  AUG-23-2013 02:40:00      3.839     0.000     1.039    24.639
  AUG-23-2013 02:41:00      3.832     0.000     1.037    24.637
  AUG-23-2013 02:42:00      3.844     0.000     1.039    24.639
  AUG-23-2013 02:43:00      3.849     0.000     1.040    24.640
  AUG-23-2013 02:44:00      3.829     0.000     1.037    24.637
  AUG-23-2013 02:45:00      3.790     0.000     1.032    24.632
  AUG-23-2013 02:46:00      3.735     0.000     1.025    24.625
  AUG-23-2013 02:47:00      3.669     0.000     1.016    24.616
  AUG-23-2013 02:48:00      3.592     0.000     1.005    24.605
  AUG-23-2013 02:49:00      3.507     0.000     0.993    24.593
  AUG-23-2013 02:50:00      3.416     0.000     0.980    24.580
  AUG-23-2013 02:51:00      3.324     0.000     0.966    24.566
  AUG-23-2013 02:52:00      3.232     0.000     0.953    24.553
  AUG-23-2013 02:53:00      3.145     0.000     0.939    24.539
  AUG-23-2013 02:54:00      3.063     0.000     0.926    24.526
  AUG-23-2013 02:55:00      2.985     0.000     0.914    24.514
  AUG-23-2013 02:56:00      2.910     0.000     0.903    24.503
  AUG-23-2013 02:57:00      2.841     0.000     0.892    24.492
  AUG-23-2013 02:58:00      2.776     0.000     0.881    24.481
  AUG-23-2013 02:59:00      2.719     0.000     0.871    24.471
  AUG-23-2013 03:00:00      2.660     0.000     0.861    24.461
  AUG-23-2013 03:01:00      2.605     0.000     0.852    24.452
  AUG-23-2013 03:02:00      2.553     0.000     0.843    24.443
  AUG-23-2013 03:03:00      2.503     0.000     0.835    24.435
  AUG-23-2013 03:04:00      2.456     0.000     0.826    24.426
  AUG-23-2013 03:05:00      2.414     0.000     0.819    24.419
  AUG-23-2013 03:06:00      2.375     0.000     0.812    24.412
  AUG-23-2013 03:07:00      2.338     0.000     0.805    24.405
  AUG-23-2013 03:08:00      2.304     0.000     0.799    24.399
  AUG-23-2013 03:09:00      2.271     0.000     0.793    24.393
  AUG-23-2013 03:10:00      2.240     0.000     0.788    24.388
  AUG-23-2013 03:11:00      2.211     0.000     0.782    24.382
  AUG-23-2013 03:12:00      2.183     0.000     0.776    24.376
  AUG-23-2013 03:13:00      2.156     0.000     0.770    24.370
  AUG-23-2013 03:14:00      2.131     0.000     0.764    24.364
  AUG-23-2013 03:15:00      2.107     0.000     0.759    24.359
  AUG-23-2013 03:16:00      2.085     0.000     0.754    24.354
  AUG-23-2013 03:17:00      2.065     0.000     0.750    24.350
  AUG-23-2013 03:18:00      2.045     0.000     0.745    24.345
  AUG-23-2013 03:19:00      2.027     0.000     0.741    24.341
  AUG-23-2013 03:20:00      2.009     0.000     0.737    24.337
  AUG-23-2013 03:21:00      1.992     0.000     0.733    24.333
  AUG-23-2013 03:22:00      1.974     0.000     0.730    24.330
  AUG-23-2013 03:23:00      1.957     0.000     0.726    24.326
  AUG-23-2013 03:24:00      1.940     0.000     0.722    24.322
  AUG-23-2013 03:25:00      1.923     0.000     0.718    24.318
  AUG-23-2013 03:26:00      1.905     0.000     0.714    24.314
  AUG-23-2013 03:27:00      1.888     0.000     0.710    24.310
  AUG-23-2013 03:28:00      1.872     0.000     0.707    24.307
  AUG-23-2013 03:29:00      1.857     0.000     0.703    24.303
  AUG-23-2013 03:30:00      1.844     0.000     0.700    24.300
  AUG-23-2013 03:31:00      1.830     0.000     0.697    24.297
  AUG-23-2013 03:32:00      1.816     0.000     0.694    24.294
  AUG-23-2013 03:33:00      1.803     0.000     0.691    24.291
  AUG-23-2013 03:34:00      1.791     0.000     0.689    24.289
  AUG-23-2013 03:35:00      1.780     0.000     0.686    24.286
  AUG-23-2013 03:36:00      1.770     0.000     0.684    24.284
  AUG-23-2013 03:37:00      1.760     0.000     0.682    24.282
  AUG-23-2013 03:38:00      1.751     0.000     0.679    24.279
  AUG-23-2013 03:39:00      1.742     0.000     0.677    24.277
  AUG-23-2013 03:40:00      1.734     0.000     0.676    24.276
  AUG-23-2013 03:41:00      1.729     0.000     0.674    24.274
  AUG-23-2013 03:42:00      1.723     0.000     0.673    24.273
  AUG-23-2013 03:43:00      1.717     0.000     0.672    24.272
  AUG-23-2013 03:44:00      1.711     0.000     0.670    24.270
  AUG-23-2013 03:45:00      1.704     0.000     0.669    24.269
  AUG-23-2013 03:46:00      1.697     0.000     0.667    24.267
  AUG-23-2013 03:47:00      1.689     0.000     0.665    24.265
  AUG-23-2013 03:48:00      1.681     0.000     0.664    24.264
  AUG-23-2013 03:49:00      1.673     0.000     0.662    24.262
  AUG-23-2013 03:50:00      1.664     0.000     0.660    24.260
  AUG-23-2013 03:51:00      1.655     0.000     0.658    24.258
  AUG-23-2013 03:52:00      1.646     0.000     0.656    24.256
  AUG-23-2013 03:53:00      1.637     0.000     0.654    24.254
  AUG-23-2013 03:54:00      1.628     0.000     0.652    24.252
  AUG-23-2013 03:55:00      1.621     0.000     0.650    24.250
  AUG-23-2013 03:56:00      1.614     0.000     0.648    24.248
  AUG-23-2013 03:57:00      1.610     0.000     0.647    24.247
  AUG-23-2013 03:58:00      1.607     0.000     0.647    24.247
  AUG-23-2013 03:59:00      1.605     0.000     0.646    24.246
  AUG-23-2013 04:00:00      1.604     0.000     0.646    24.246
  AUG-23-2013 04:01:00      1.603     0.000     0.646    24.246
  AUG-23-2013 04:02:00      1.602     0.000     0.646    24.246
  AUG-23-2013 04:03:00      1.601     0.000     0.645    24.245
  AUG-23-2013 04:04:00      1.601     0.000     0.645    24.245
  AUG-23-2013 04:05:00      1.601     0.000     0.645    24.245
  AUG-23-2013 04:06:00      1.600     0.000     0.645    24.245
  AUG-23-2013 04:07:00      1.600     0.000     0.645    24.245
  AUG-23-2013 04:08:00      1.600     0.000     0.645    24.245
  AUG-23-2013 04:09:00      1.600     0.000     0.645    24.245
  AUG-23-2013 04:10:00      1.600     0.000     0.645    24.245
  AUG-23-2013 04:11:00      1.600     0.000     0.645    24.245
  AUG-23-2013 04:12:00      1.600     0.000     0.645    24.245
  AUG-23-2013 04:13:00      1.600     0.000     0.645    24.245
  AUG-23-2013 04:14:00      1.600     0.000     0.645    24.245
  AUG-23-2013 04:15:00      1.600     0.000     0.645    24.245
  AUG-23-2013 04:16:00      1.600     0.000     0.645    24.245
  AUG-23-2013 04:17:00      1.600     0.000     0.645    24.245
  AUG-23-2013 04:18:00      1.600     0.000     0.645    24.245
  AUG-23-2013 04:19:00      1.600     0.000     0.645    24.245
  AUG-23-2013 04:20:00      1.600     0.000     0.645    24.245
  AUG-23-2013 04:21:00      1.600     0.000     0.645    24.245
  AUG-23-2013 04:22:00      1.600     0.000     0.645    24.245
  AUG-23-2013 04:23:00      1.600     0.000     0.645    24.245
  AUG-23-2013 04:24:00      1.600     0.000     0.645    24.245
  AUG-23-2013 04:25:00      1.600     0.000     0.645    24.245
  AUG-23-2013 04:26:00      1.600     0.000     0.645    24.245
  AUG-23-2013 04:27:00      1.600     0.000     0.645    24.245
  AUG-23-2013 04:28:00      1.600     0.000     0.645    24.245
  AUG-23-2013 04:29:00      1.600     0.000     0.645    24.245
  AUG-23-2013 04:30:00      1.600     0.000     0.645    24.245
  AUG-23-2013 04:31:00      1.600     0.000     0.645    24.245
  AUG-23-2013 04:32:00      1.600     0.000     0.645    24.245
  AUG-23-2013 04:33:00      1.600     0.000     0.645    24.245
  AUG-23-2013 04:34:00      1.600     0.000     0.645    24.245
  AUG-23-2013 04:35:00      1.600     0.000     0.645    24.245
  AUG-23-2013 04:36:00      1.600     0.000     0.645    24.245
  AUG-23-2013 04:37:00      1.600     0.000     0.645    24.245
  AUG-23-2013 04:38:00      1.600     0.000     0.645    24.245
  AUG-23-2013 04:39:00      1.600     0.000     0.645    24.245
  AUG-23-2013 04:40:00      1.600     0.000     0.645    24.245
  AUG-23-2013 04:41:00      1.600     0.000     0.645    24.245
  AUG-23-2013 04:42:00      1.600     0.000     0.645    24.245
  AUG-23-2013 04:43:00      1.600     0.000     0.645    24.245
  AUG-23-2013 04:44:00      1.600     0.000     0.645    24.245
  AUG-23-2013 04:45:00      1.600     0.000     0.645    24.245
  AUG-23-2013 04:46:00      1.600     0.000     0.645    24.245
  AUG-23-2013 04:47:00      1.600     0.000     0.645    24.245
  AUG-23-2013 04:48:00      1.600     0.000     0.645    24.245
  AUG-23-2013 04:49:00      1.600     0.000     0.645    24.245
  AUG-23-2013 04:50:00      1.600     0.000     0.645    24.245
  AUG-23-2013 04:51:00      1.600     0.000     0.645    24.245
  AUG-23-2013 04:52:00      1.600     0.000     0.645    24.245
  AUG-23-2013 04:53:00      1.600     0.000     0.645    24.245
  AUG-23-2013 04:54:00      1.600     0.000     0.645    24.245
  AUG-23-2013 04:55:00      1.600     0.000     0.645    24.245
  AUG-23-2013 04:56:00      1.600     0.000     0.645    24.245
  AUG-23-2013 04:57:00      1.600     0.000     0.645    24.245
  AUG-23-2013 04:58:00      1.600     0.000     0.645    24.245
  AUG-23-2013 04:59:00      1.600     0.000     0.645    24.245
  AUG-23-2013 05:00:00      1.600     0.000     0.645    24.245
  
  
  ************
  Link Results
  ************
  
  <<< Link 1 >>>
  ----------------------------------------------------------------
                             Flow  Velocity     Depth  Capacity/
  Date        Time            CMS     m/sec    meters   Setting 
  ----------------------------------------------------------------
  AUG-23-2013 00:01:00      1.595     3.002     0.528     0.345
  AUG-23-2013 00:02:00      1.600     2.943     0.537     0.353
  AUG-23-2013 00:03:00      1.601     2.897     0.544     0.359
  AUG-23-2013 00:04:00      1.600     2.862     0.548     0.363
  AUG-23-2013 00:05:00      1.600     2.838     0.552     0.366
  AUG-23-2013 00:06:00      1.600     2.822     0.554     0.368
  AUG-23-2013 00:07:00      1.600     2.811     0.556     0.370
  AUG-23-2013 00:08:00      1.603     2.805     0.557     0.371
  AUG-23-2013 00:09:00      1.610     2.806     0.559     0.373
  AUG-23-2013 00:10:00      1.619     2.811     0.561     0.374
  AUG-23-2013 00:11:00      1.628     2.816     0.562     0.376
  AUG-23-2013 00:12:00      1.637     2.820     0.564     0.377
  AUG-23-2013 00:13:00      1.647     2.825     0.566     0.379
  AUG-23-2013 00:14:00      1.658     2.830     0.568     0.380
  AUG-23-2013 00:15:00      1.667     2.834     0.569     0.382
  AUG-23-2013 00:16:00      1.675     2.837     0.571     0.383
  AUG-23-2013 00:17:00      1.683     2.840     0.573     0.385
  AUG-23-2013 00:18:00      1.692     2.843     0.574     0.386
  AUG-23-2013 00:19:00      1.700     2.846     0.576     0.388
  AUG-23-2013 00:20:00      1.707     2.849     0.577     0.389
  AUG-23-2013 00:21:00      1.714     2.851     0.579     0.391
  AUG-23-2013 00:22:00      1.718     2.851     0.580     0.391
  AUG-23-2013 00:23:00      1.719     2.848     0.580     0.392
  AUG-23-2013 00:24:00      1.722     2.846     0.581     0.393
  AUG-23-2013 00:25:00      1.731     2.852     0.583     0.394
  AUG-23-2013 00:26:00      1.742     2.860     0.584     0.396
  AUG-23-2013 00:27:00      1.751     2.866     0.586     0.397
  AUG-23-2013 00:28:00      1.759     2.870     0.587     0.398
  AUG-23-2013 00:29:00      1.768     2.873     0.589     0.400
  AUG-23-2013 00:30:00      1.778     2.878     0.591     0.401
  AUG-23-2013 00:31:00      1.790     2.885     0.593     0.403
  AUG-23-2013 00:32:00      1.804     2.893     0.595     0.405
  AUG-23-2013 00:33:00      1.818     2.901     0.597     0.407
  AUG-23-2013 00:34:00      1.831     2.908     0.599     0.409
  AUG-23-2013 00:35:00      1.840     2.910     0.601     0.411
  AUG-23-2013 00:36:00      1.852     2.914     0.604     0.413
  AUG-23-2013 00:37:00      1.871     2.925     0.607     0.416
  AUG-23-2013 00:38:00      1.893     2.939     0.610     0.418
  AUG-23-2013 00:39:00      1.911     2.948     0.613     0.421
  AUG-23-2013 00:40:00      1.928     2.954     0.616     0.424
  AUG-23-2013 00:41:00      1.944     2.959     0.619     0.427
  AUG-23-2013 00:42:00      1.961     2.965     0.622     0.429
  AUG-23-2013 00:43:00      1.978     2.972     0.625     0.432
  AUG-23-2013 00:44:00      1.995     2.978     0.629     0.435
  AUG-23-2013 00:45:00      2.011     2.984     0.632     0.438
  AUG-23-2013 00:46:00      2.028     2.989     0.635     0.441
  AUG-23-2013 00:47:00      2.045     2.995     0.638     0.444
  AUG-23-2013 00:48:00      2.064     3.002     0.641     0.447
  AUG-23-2013 00:49:00      2.085     3.011     0.645     0.450
  AUG-23-2013 00:50:00      2.108     3.021     0.649     0.453
  AUG-23-2013 00:51:00      2.133     3.032     0.653     0.457
  AUG-23-2013 00:52:00      2.158     3.043     0.657     0.461
  AUG-23-2013 00:53:00      2.184     3.053     0.661     0.465
  AUG-23-2013 00:54:00      2.211     3.064     0.666     0.469
  AUG-23-2013 00:55:00      2.241     3.075     0.671     0.473
  AUG-23-2013 00:56:00      2.272     3.087     0.676     0.478
  AUG-23-2013 00:57:00      2.304     3.099     0.681     0.483
  AUG-23-2013 00:58:00      2.333     3.109     0.686     0.487
  AUG-23-2013 00:59:00      2.359     3.115     0.691     0.492
  AUG-23-2013 01:00:00      2.392     3.125     0.697     0.497
  AUG-23-2013 01:01:00      2.454     3.165     0.704     0.504
  AUG-23-2013 01:02:00      2.486     3.162     0.712     0.511
  AUG-23-2013 01:03:00      2.537     3.181     0.720     0.518
  AUG-23-2013 01:04:00      2.585     3.198     0.728     0.525
  AUG-23-2013 01:05:00      2.632     3.210     0.736     0.533
  AUG-23-2013 01:06:00      2.683     3.224     0.745     0.541
  AUG-23-2013 01:07:00      2.750     3.257     0.753     0.548
  AUG-23-2013 01:08:00      2.797     3.264     0.762     0.557
  AUG-23-2013 01:09:00      2.855     3.283     0.771     0.565
  AUG-23-2013 01:10:00      2.911     3.296     0.781     0.574
  AUG-23-2013 01:11:00      2.970     3.310     0.791     0.583
  AUG-23-2013 01:12:00      3.042     3.332     0.803     0.593
  AUG-23-2013 01:13:00      3.125     3.358     0.815     0.604
  AUG-23-2013 01:14:00      3.198     3.372     0.828     0.616
  AUG-23-2013 01:15:00      3.259     3.377     0.841     0.627
  AUG-23-2013 01:16:00      3.329     3.387     0.853     0.638
  AUG-23-2013 01:17:00      3.407     3.401     0.867     0.651
  AUG-23-2013 01:18:00      3.489     3.415     0.882     0.664
  AUG-23-2013 01:19:00      3.574     3.428     0.898     0.677
  AUG-23-2013 01:20:00      3.659     3.438     0.914     0.691
  AUG-23-2013 01:21:00      3.744     3.445     0.931     0.706
  AUG-23-2013 01:22:00      3.830     3.449     0.949     0.721
  AUG-23-2013 01:23:00      3.918     3.452     0.968     0.737
  AUG-23-2013 01:24:00      4.015     3.457     0.988     0.754
  AUG-23-2013 01:25:00      4.117     3.459     1.011     0.773
  AUG-23-2013 01:26:00      4.212     3.450     1.036     0.793
  AUG-23-2013 01:27:00      4.300     3.430     1.063     0.814
  AUG-23-2013 01:28:00      4.386     3.398     1.094     0.839
  AUG-23-2013 01:29:00      4.471     3.380     1.122     0.859
  AUG-23-2013 01:30:00      4.558     3.416     1.133     0.867
  AUG-23-2013 01:31:00      4.645     3.464     1.139     0.871
  AUG-23-2013 01:32:00      4.729     3.512     1.144     0.875
  AUG-23-2013 01:33:00      4.812     3.558     1.149     0.878
  AUG-23-2013 01:34:00      4.891     3.602     1.154     0.882
  AUG-23-2013 01:35:00      4.969     3.645     1.159     0.885
  AUG-23-2013 01:36:00      5.051     3.690     1.165     0.889
  AUG-23-2013 01:37:00      5.132     3.734     1.170     0.893
  AUG-23-2013 01:38:00      5.200     3.769     1.175     0.896
  AUG-23-2013 01:39:00      5.254     3.794     1.180     0.899
  AUG-23-2013 01:40:00      5.328     3.834     1.185     0.903
  AUG-23-2013 01:41:00      5.394     3.870     1.189     0.905
  AUG-23-2013 01:42:00      5.460     3.903     1.194     0.909
  AUG-23-2013 01:43:00      5.527     3.938     1.199     0.912
  AUG-23-2013 01:44:00      5.593     3.972     1.204     0.915
  AUG-23-2013 01:45:00      5.655     4.004     1.208     0.917
  AUG-23-2013 01:46:00      5.710     4.033     1.212     0.920
  AUG-23-2013 01:47:00      5.762     4.060     1.215     0.922
  AUG-23-2013 01:48:00      5.821     4.089     1.220     0.925
  AUG-23-2013 01:49:00      5.883     4.120     1.225     0.928
  AUG-23-2013 01:50:00      5.940     4.149     1.229     0.930
  AUG-23-2013 01:51:00      5.990     4.174     1.232     0.932
  AUG-23-2013 01:52:00      6.040     4.198     1.236     0.934
  AUG-23-2013 01:53:00      6.090     4.223     1.240     0.937
  AUG-23-2013 01:54:00      6.136     4.246     1.244     0.939
  AUG-23-2013 01:55:00      6.176     4.266     1.247     0.940
  AUG-23-2013 01:56:00      6.208     4.281     1.249     0.942
  AUG-23-2013 01:57:00      6.233     4.293     1.251     0.943
  AUG-23-2013 01:58:00      6.256     4.304     1.253     0.944
  AUG-23-2013 01:59:00      6.274     4.313     1.255     0.945
  AUG-23-2013 02:00:00      6.282     4.318     1.255     0.945
  AUG-23-2013 02:01:00      6.280     4.317     1.254     0.945
  AUG-23-2013 02:02:00      6.267     4.313     1.253     0.944
  AUG-23-2013 02:03:00      6.246     4.303     1.251     0.943
  AUG-23-2013 02:04:00      6.222     4.292     1.249     0.942
  AUG-23-2013 02:05:00      6.194     4.280     1.246     0.940
  AUG-23-2013 02:06:00      6.156     4.263     1.243     0.938
  AUG-23-2013 02:07:00      6.112     4.242     1.239     0.936
  AUG-23-2013 02:08:00      6.065     4.219     1.235     0.934
  AUG-23-2013 02:09:00      6.014     4.194     1.231     0.931
  AUG-23-2013 02:10:00      5.962     4.168     1.227     0.929
  AUG-23-2013 02:11:00      5.910     4.143     1.223     0.927
  AUG-23-2013 02:12:00      5.852     4.115     1.219     0.924
  AUG-23-2013 02:13:00      5.789     4.083     1.214     0.921
  AUG-23-2013 02:14:00      5.733     4.053     1.210     0.919
  AUG-23-2013 02:15:00      5.683     4.028     1.206     0.916
  AUG-23-2013 02:16:00      5.625     3.999     1.202     0.914
  AUG-23-2013 02:17:00      5.560     3.966     1.197     0.911
  AUG-23-2013 02:18:00      5.494     3.933     1.193     0.907
  AUG-23-2013 02:19:00      5.428     3.898     1.188     0.904
  AUG-23-2013 02:20:00      5.361     3.863     1.183     0.901
  AUG-23-2013 02:21:00      5.297     3.829     1.179     0.899
  AUG-23-2013 02:22:00      5.235     3.796     1.175     0.896
  AUG-23-2013 02:23:00      5.173     3.763     1.171     0.893
  AUG-23-2013 02:24:00      5.093     3.718     1.166     0.890
  AUG-23-2013 02:25:00      5.011     3.671     1.161     0.887
  AUG-23-2013 02:26:00      4.935     3.630     1.156     0.883
  AUG-23-2013 02:27:00      4.859     3.586     1.151     0.880
  AUG-23-2013 02:28:00      4.781     3.541     1.147     0.877
  AUG-23-2013 02:29:00      4.701     3.496     1.142     0.873
  AUG-23-2013 02:30:00      4.618     3.450     1.137     0.870
  AUG-23-2013 02:31:00      4.535     3.402     1.131     0.866
  AUG-23-2013 02:32:00      4.451     3.354     1.126     0.862
  AUG-23-2013 02:33:00      4.368     3.306     1.121     0.858
  AUG-23-2013 02:34:00      4.283     3.257     1.115     0.854
  AUG-23-2013 02:35:00      4.198     3.207     1.110     0.850
  AUG-23-2013 02:36:00      4.101     3.150     1.104     0.846
  AUG-23-2013 02:37:00      4.007     3.093     1.098     0.841
  AUG-23-2013 02:38:00      3.917     3.039     1.093     0.837
  AUG-23-2013 02:39:00      3.830     2.986     1.087     0.833
  AUG-23-2013 02:40:00      3.746     2.935     1.082     0.829
  AUG-23-2013 02:41:00      3.660     2.887     1.075     0.824
  AUG-23-2013 02:42:00      3.569     2.862     1.057     0.810
  AUG-23-2013 02:43:00      3.490     2.860     1.035     0.792
  AUG-23-2013 02:44:00      3.411     2.866     1.011     0.773
  AUG-23-2013 02:45:00      3.337     2.879     0.986     0.753
  AUG-23-2013 02:46:00      3.270     2.899     0.962     0.733
  AUG-23-2013 02:47:00      3.206     2.919     0.939     0.713
  AUG-23-2013 02:48:00      3.135     2.934     0.917     0.694
  AUG-23-2013 02:49:00      3.058     2.943     0.895     0.675
  AUG-23-2013 02:50:00      2.987     2.954     0.874     0.657
  AUG-23-2013 02:51:00      2.925     2.968     0.856     0.640
  AUG-23-2013 02:52:00      2.865     2.979     0.838     0.625
  AUG-23-2013 02:53:00      2.807     2.987     0.822     0.610
  AUG-23-2013 02:54:00      2.750     2.991     0.807     0.597
  AUG-23-2013 02:55:00      2.696     2.994     0.794     0.585
  AUG-23-2013 02:56:00      2.644     2.995     0.781     0.573
  AUG-23-2013 02:57:00      2.595     2.997     0.769     0.562
  AUG-23-2013 02:58:00      2.548     2.997     0.757     0.552
  AUG-23-2013 02:59:00      2.508     3.003     0.747     0.543
  AUG-23-2013 03:00:00      2.454     2.989     0.737     0.533
  AUG-23-2013 03:01:00      2.408     2.983     0.727     0.524
  AUG-23-2013 03:02:00      2.370     2.983     0.718     0.516
  AUG-23-2013 03:03:00      2.335     2.979     0.710     0.509
  AUG-23-2013 03:04:00      2.307     2.980     0.703     0.503
  AUG-23-2013 03:05:00      2.279     2.980     0.697     0.497
  AUG-23-2013 03:06:00      2.248     2.974     0.690     0.491
  AUG-23-2013 03:07:00      2.218     2.967     0.684     0.486
  AUG-23-2013 03:08:00      2.190     2.961     0.679     0.480
  AUG-23-2013 03:09:00      2.164     2.955     0.673     0.476
  AUG-23-2013 03:10:00      2.139     2.949     0.668     0.471
  AUG-23-2013 03:11:00      2.114     2.943     0.663     0.467
  AUG-23-2013 03:12:00      2.090     2.937     0.659     0.462
  AUG-23-2013 03:13:00      2.069     2.932     0.654     0.458
  AUG-23-2013 03:14:00      2.050     2.928     0.650     0.455
  AUG-23-2013 03:15:00      2.032     2.924     0.647     0.451
  AUG-23-2013 03:16:00      2.015     2.921     0.643     0.448
  AUG-23-2013 03:17:00      1.999     2.917     0.640     0.445
  AUG-23-2013 03:18:00      1.982     2.912     0.636     0.442
  AUG-23-2013 03:19:00      1.965     2.906     0.633     0.439
  AUG-23-2013 03:20:00      1.948     2.900     0.630     0.436
  AUG-23-2013 03:21:00      1.932     2.894     0.627     0.434
  AUG-23-2013 03:22:00      1.915     2.888     0.624     0.431
[...]
  AUG-23-2013 04:55:00      1.600     2.786     0.559     0.373
  AUG-23-2013 04:56:00      1.600     2.786     0.559     0.373
  AUG-23-2013 04:57:00      1.600     2.786     0.559     0.373
  AUG-23-2013 04:58:00      1.600     2.786     0.559     0.373
  AUG-23-2013 04:59:00      1.600     2.786     0.559     0.373
  AUG-23-2013 05:00:00      1.600     2.786     0.559     0.373
  
  
  <<< Link 2 >>>
  ----------------------------------------------------------------
                             Flow  Velocity     Depth  Capacity/
  Date        Time            CMS     m/sec    meters   Setting 
  ----------------------------------------------------------------
  AUG-23-2013 00:01:00      1.292     2.188     0.571     0.384
  AUG-23-2013 00:02:00      1.366     2.209     0.591     0.402
  AUG-23-2013 00:03:00      1.430     2.236     0.607     0.416
  AUG-23-2013 00:04:00      1.479     2.257     0.618     0.426
  AUG-23-2013 00:05:00      1.515     2.272     0.626     0.433
  AUG-23-2013 00:06:00      1.540     2.283     0.632     0.438
  AUG-23-2013 00:07:00      1.558     2.291     0.636     0.442
  AUG-23-2013 00:08:00      1.571     2.297     0.639     0.444
  AUG-23-2013 00:09:00      1.581     2.301     0.641     0.446
  AUG-23-2013 00:10:00      1.589     2.304     0.643     0.448
  AUG-23-2013 00:11:00      1.597     2.307     0.645     0.450
  AUG-23-2013 00:12:00      1.606     2.310     0.647     0.451
  AUG-23-2013 00:13:00      1.614     2.314     0.649     0.453
  AUG-23-2013 00:14:00      1.623     2.317     0.651     0.455
  AUG-23-2013 00:15:00      1.633     2.320     0.653     0.457
  AUG-23-2013 00:16:00      1.642     2.324     0.655     0.459
  AUG-23-2013 00:17:00      1.651     2.327     0.657     0.461
  AUG-23-2013 00:18:00      1.660     2.330     0.659     0.463
  AUG-23-2013 00:19:00      1.669     2.333     0.661     0.465
  AUG-23-2013 00:20:00      1.677     2.336     0.663     0.466
  AUG-23-2013 00:21:00      1.686     2.339     0.665     0.468
  AUG-23-2013 00:22:00      1.694     2.342     0.667     0.470
  AUG-23-2013 00:23:00      1.701     2.345     0.668     0.471
  AUG-23-2013 00:24:00      1.706     2.347     0.669     0.472
  AUG-23-2013 00:25:00      1.711     2.348     0.671     0.473
  AUG-23-2013 00:26:00      1.716     2.350     0.672     0.474
  AUG-23-2013 00:27:00      1.723     2.353     0.673     0.476
  AUG-23-2013 00:28:00      1.731     2.355     0.675     0.477
  AUG-23-2013 00:29:00      1.739     2.358     0.677     0.479
  AUG-23-2013 00:30:00      1.747     2.361     0.679     0.481
  AUG-23-2013 00:31:00      1.755     2.364     0.681     0.482
  AUG-23-2013 00:32:00      1.765     2.367     0.683     0.484
  AUG-23-2013 00:33:00      1.776     2.370     0.685     0.487
  AUG-23-2013 00:34:00      1.787     2.374     0.688     0.489
  AUG-23-2013 00:35:00      1.799     2.378     0.691     0.491
  AUG-23-2013 00:36:00      1.811     2.382     0.693     0.494
  AUG-23-2013 00:37:00      1.823     2.386     0.696     0.496
  AUG-23-2013 00:38:00      1.836     2.390     0.699     0.499
  AUG-23-2013 00:39:00      1.852     2.395     0.702     0.502
  AUG-23-2013 00:40:00      1.868     2.400     0.706     0.506
  AUG-23-2013 00:41:00      1.885     2.405     0.710     0.509
  AUG-23-2013 00:42:00      1.901     2.410     0.714     0.512
  AUG-23-2013 00:43:00      1.918     2.415     0.717     0.516
  AUG-23-2013 00:44:00      1.935     2.420     0.721     0.519
  AUG-23-2013 00:45:00      1.952     2.426     0.725     0.523
  AUG-23-2013 00:46:00      1.969     2.431     0.729     0.526
  AUG-23-2013 00:47:00      1.986     2.436     0.732     0.529
  AUG-23-2013 00:48:00      2.003     2.441     0.736     0.533
  AUG-23-2013 00:49:00      2.020     2.446     0.740     0.536
  AUG-23-2013 00:50:00      2.038     2.452     0.744     0.540
  AUG-23-2013 00:51:00      2.058     2.457     0.748     0.544
  AUG-23-2013 00:52:00      2.079     2.463     0.753     0.548
  AUG-23-2013 00:53:00      2.102     2.469     0.758     0.553
  AUG-23-2013 00:54:00      2.125     2.476     0.763     0.558
  AUG-23-2013 00:55:00      2.149     2.482     0.769     0.562
  AUG-23-2013 00:56:00      2.175     2.489     0.774     0.568
  AUG-23-2013 00:57:00      2.203     2.496     0.781     0.573
  AUG-23-2013 00:58:00      2.231     2.504     0.787     0.579
  AUG-23-2013 00:59:00      2.260     2.513     0.793     0.584
  AUG-23-2013 01:00:00      2.288     2.522     0.798     0.589
  AUG-23-2013 01:01:00      2.321     2.531     0.806     0.596
  AUG-23-2013 01:02:00      2.353     2.543     0.812     0.601
  AUG-23-2013 01:03:00      2.389     2.553     0.819     0.608
  AUG-23-2013 01:04:00      2.429     2.564     0.828     0.615
  AUG-23-2013 01:05:00      2.471     2.576     0.836     0.623
  AUG-23-2013 01:06:00      2.515     2.588     0.845     0.631
  AUG-23-2013 01:07:00      2.567     2.600     0.857     0.641
  AUG-23-2013 01:08:00      2.617     2.615     0.867     0.650
  AUG-23-2013 01:09:00      2.669     2.629     0.877     0.659
  AUG-23-2013 01:10:00      2.720     2.643     0.888     0.669
  AUG-23-2013 01:11:00      2.773     2.657     0.899     0.678
  AUG-23-2013 01:12:00      2.828     2.671     0.910     0.688
  AUG-23-2013 01:13:00      2.887     2.685     0.922     0.699
  AUG-23-2013 01:14:00      2.950     2.700     0.935     0.710
  AUG-23-2013 01:15:00      3.014     2.714     0.949     0.721
  AUG-23-2013 01:16:00      3.077     2.728     0.962     0.732
  AUG-23-2013 01:17:00      3.141     2.741     0.976     0.744
  AUG-23-2013 01:18:00      3.207     2.754     0.991     0.756
  AUG-23-2013 01:19:00      3.277     2.767     1.006     0.769
  AUG-23-2013 01:20:00      3.348     2.780     1.022     0.782
  AUG-23-2013 01:21:00      3.420     2.792     1.039     0.796
  AUG-23-2013 01:22:00      3.492     2.801     1.057     0.810
  AUG-23-2013 01:23:00      3.563     2.809     1.075     0.824
  AUG-23-2013 01:24:00      3.633     2.813     1.095     0.839
  AUG-23-2013 01:25:00      3.703     2.815     1.116     0.854
  AUG-23-2013 01:26:00      3.771     2.812     1.139     0.871
  AUG-23-2013 01:27:00      3.833     2.800     1.165     0.889
  AUG-23-2013 01:28:00      3.875     2.771     1.194     0.908
  AUG-23-2013 01:29:00      3.921     2.758     1.218     0.923
  AUG-23-2013 01:30:00      3.995     2.791     1.228     0.930
  AUG-23-2013 01:31:00      4.013     2.799     1.231     0.931
  AUG-23-2013 01:32:00      4.014     2.800     1.231     0.931
  AUG-23-2013 01:33:00      4.015     2.800     1.231     0.931
  AUG-23-2013 01:34:00      4.015     2.800     1.231     0.931
  AUG-23-2013 01:35:00      4.015     2.800     1.231     0.931
  AUG-23-2013 01:36:00      4.015     2.800     1.231     0.931
  AUG-23-2013 01:37:00      4.015     2.800     1.231     0.931
  AUG-23-2013 01:38:00      4.015     2.800     1.231     0.931
  AUG-23-2013 01:39:00      4.015     2.800     1.231     0.931
  AUG-23-2013 01:40:00      4.015     2.800     1.231     0.931
  AUG-23-2013 01:41:00      4.015     2.800     1.231     0.931
  AUG-23-2013 01:42:00      4.015     2.800     1.231     0.931
  AUG-23-2013 01:43:00      4.015     2.800     1.231     0.931
  AUG-23-2013 01:44:00      4.015     2.800     1.231     0.931
  AUG-23-2013 01:45:00      4.015     2.800     1.231     0.931
  AUG-23-2013 01:46:00      4.015     2.800     1.231     0.931
  AUG-23-2013 01:47:00      4.015     2.800     1.231     0.931
  AUG-23-2013 01:48:00      4.015     2.800     1.231     0.931
  AUG-23-2013 01:49:00      4.015     2.800     1.231     0.931
  AUG-23-2013 01:50:00      4.015     2.800     1.231     0.931
  AUG-23-2013 01:51:00      4.015     2.800     1.231     0.931
  AUG-23-2013 01:52:00      4.015     2.800     1.231     0.931
  AUG-23-2013 01:53:00      4.015     2.800     1.231     0.931
  AUG-23-2013 01:54:00      4.015     2.800     1.231     0.931
  AUG-23-2013 01:55:00      4.015     2.800     1.231     0.931
  AUG-23-2013 01:56:00      4.015     2.800     1.231     0.931
  AUG-23-2013 01:57:00      4.015     2.800     1.231     0.931
  AUG-23-2013 01:58:00      4.015     2.800     1.231     0.931
  AUG-23-2013 01:59:00      4.015     2.800     1.231     0.931
  AUG-23-2013 02:00:00      4.015     2.800     1.231     0.931
  AUG-23-2013 02:01:00      4.015     2.800     1.231     0.931
  AUG-23-2013 02:02:00      4.015     2.800     1.231     0.931
  AUG-23-2013 02:03:00      4.015     2.800     1.231     0.931
  AUG-23-2013 02:04:00      4.015     2.800     1.231     0.931
  AUG-23-2013 02:05:00      4.015     2.800     1.231     0.931
  AUG-23-2013 02:06:00      4.015     2.800     1.231     0.931
  AUG-23-2013 02:07:00      4.015     2.800     1.231     0.931
  AUG-23-2013 02:08:00      4.015     2.800     1.231     0.931
  AUG-23-2013 02:09:00      4.015     2.800     1.231     0.931
  AUG-23-2013 02:10:00      4.015     2.800     1.231     0.931
  AUG-23-2013 02:11:00      4.015     2.800     1.231     0.931
  AUG-23-2013 02:12:00      4.015     2.800     1.231     0.931
  AUG-23-2013 02:13:00      4.015     2.800     1.231     0.931
  AUG-23-2013 02:14:00      4.015     2.800     1.231     0.931
  AUG-23-2013 02:15:00      4.015     2.800     1.231     0.931
  AUG-23-2013 02:16:00      4.015     2.800     1.231     0.931
  AUG-23-2013 02:17:00      4.015     2.800     1.231     0.931
  AUG-23-2013 02:18:00      4.015     2.800     1.231     0.931
  AUG-23-2013 02:19:00      4.015     2.800     1.231     0.931
  AUG-23-2013 02:20:00      4.015     2.800     1.231     0.931
  AUG-23-2013 02:21:00      4.015     2.800     1.231     0.931
  AUG-23-2013 02:22:00      4.015     2.800     1.231     0.931
  AUG-23-2013 02:23:00      4.015     2.800     1.231     0.931
  AUG-23-2013 02:24:00      4.015     2.800     1.231     0.931
  AUG-23-2013 02:25:00      4.015     2.800     1.231     0.931
  AUG-23-2013 02:26:00      4.015     2.800     1.231     0.931
  AUG-23-2013 02:27:00      4.015     2.800     1.231     0.931
  AUG-23-2013 02:28:00      4.015     2.800     1.231     0.931
  AUG-23-2013 02:29:00      4.015     2.800     1.231     0.931
  AUG-23-2013 02:30:00      4.015     2.800     1.231     0.931
  AUG-23-2013 02:31:00      4.015     2.800     1.231     0.931
  AUG-23-2013 02:32:00      4.015     2.800     1.231     0.931
  AUG-23-2013 02:33:00      4.015     2.800     1.231     0.931
  AUG-23-2013 02:34:00      4.015     2.800     1.231     0.931
  AUG-23-2013 02:35:00      4.015     2.800     1.231     0.931
  AUG-23-2013 02:36:00      4.015     2.800     1.231     0.931
  AUG-23-2013 02:37:00      3.993     2.787     1.230     0.931
  AUG-23-2013 02:38:00      3.926     2.748     1.225     0.928
  AUG-23-2013 02:39:00      3.868     2.715     1.221     0.926
  AUG-23-2013 02:40:00      3.839     2.699     1.219     0.924
  AUG-23-2013 02:41:00      3.832     2.697     1.217     0.923
  AUG-23-2013 02:42:00      3.844     2.726     1.206     0.916
  AUG-23-2013 02:43:00      3.849     2.761     1.189     0.905
  AUG-23-2013 02:44:00      3.829     2.789     1.169     0.892
  AUG-23-2013 02:45:00      3.790     2.808     1.146     0.876
  AUG-23-2013 02:46:00      3.735     2.822     1.123     0.860
  AUG-23-2013 02:47:00      3.669     2.828     1.100     0.843
  AUG-23-2013 02:48:00      3.592     2.827     1.077     0.825
  AUG-23-2013 02:49:00      3.507     2.822     1.054     0.807
  AUG-23-2013 02:50:00      3.416     2.812     1.031     0.789
  AUG-23-2013 02:51:00      3.324     2.797     1.009     0.772
  AUG-23-2013 02:52:00      3.232     2.780     0.989     0.755
  AUG-23-2013 02:53:00      3.145     2.763     0.970     0.739
  AUG-23-2013 02:54:00      3.063     2.745     0.953     0.725
  AUG-23-2013 02:55:00      2.985     2.728     0.936     0.711
  AUG-23-2013 02:56:00      2.910     2.709     0.921     0.698
  AUG-23-2013 02:57:00      2.841     2.691     0.908     0.686
  AUG-23-2013 02:58:00      2.776     2.674     0.894     0.674
  AUG-23-2013 02:59:00      2.719     2.657     0.883     0.665
  AUG-23-2013 03:00:00      2.660     2.641     0.871     0.654
  AUG-23-2013 03:01:00      2.605     2.625     0.860     0.644
  AUG-23-2013 03:02:00      2.553     2.610     0.850     0.635
  AUG-23-2013 03:03:00      2.503     2.596     0.840     0.626
  AUG-23-2013 03:04:00      2.456     2.582     0.830     0.618
  AUG-23-2013 03:05:00      2.414     2.569     0.822     0.610
  AUG-23-2013 03:06:00      2.375     2.556     0.814     0.603
  AUG-23-2013 03:07:00      2.338     2.544     0.807     0.597
  AUG-23-2013 03:08:00      2.304     2.533     0.800     0.591
  AUG-23-2013 03:09:00      2.271     2.522     0.794     0.585
  AUG-23-2013 03:10:00      2.240     2.511     0.788     0.579
  AUG-23-2013 03:11:00      2.211     2.501     0.782     0.574
  AUG-23-2013 03:12:00      2.183     2.493     0.776     0.569
  AUG-23-2013 03:13:00      2.156     2.486     0.770     0.563
  AUG-23-2013 03:14:00      2.131     2.479     0.764     0.558
  AUG-23-2013 03:15:00      2.107     2.473     0.759     0.554
  AUG-23-2013 03:16:00      2.085     2.467     0.754     0.549
  AUG-23-2013 03:17:00      2.065     2.461     0.750     0.545
  AUG-23-2013 03:18:00      2.045     2.455     0.745     0.541
  AUG-23-2013 03:19:00      2.027     2.450     0.741     0.537
  AUG-23-2013 03:20:00      2.009     2.444     0.737     0.534
  AUG-23-2013 03:21:00      1.992     2.439     0.733     0.530
  AUG-23-2013 03:22:00      1.974     2.434     0.730     0.527
  AUG-23-2013 03:23:00      1.957     2.429     0.726     0.523
  AUG-23-2013 03:24:00      1.940     2.424     0.722     0.520
  AUG-23-2013 03:25:00      1.923     2.418     0.718     0.516
  AUG-23-2013 03:26:00      1.905     2.413     0.714     0.513
  AUG-23-2013 03:27:00      1.888     2.408     0.710     0.509
  AUG-23-2013 03:28:00      1.872     2.403     0.707     0.506
  AUG-23-2013 03:29:00      1.857     2.398     0.703     0.503
  AUG-23-2013 03:30:00      1.844     2.394     0.700     0.500
  AUG-23-2013 03:31:00      1.830     2.389     0.697     0.497
  AUG-23-2013 03:32:00      1.816     2.385     0.694     0.495
  AUG-23-2013 03:33:00      1.803     2.380     0.691     0.492
  AUG-23-2013 03:34:00      1.791     2.376     0.689     0.490
  AUG-23-2013 03:35:00      1.780     2.373     0.686     0.487
  AUG-23-2013 03:36:00      1.770     2.369     0.684     0.485
  AUG-23-2013 03:37:00      1.760     2.366     0.682     0.483
  AUG-23-2013 03:38:00      1.751     2.363     0.679     0.481
  AUG-23-2013 03:39:00      1.742     2.360     0.677     0.479
  AUG-23-2013 03:40:00      1.734     2.357     0.676     0.478
  AUG-23-2013 03:41:00      1.729     2.355     0.674     0.477
  AUG-23-2013 03:42:00      1.723     2.353     0.673     0.476
  AUG-23-2013 03:43:00      1.717     2.351     0.672     0.474
  AUG-23-2013 03:44:00      1.711     2.349     0.670     0.473
  AUG-23-2013 03:45:00      1.704     2.347     0.669     0.472
  AUG-23-2013 03:46:00      1.697     2.344     0.667     0.470
  AUG-23-2013 03:47:00      1.689     2.341     0.665     0.469
  AUG-23-2013 03:48:00      1.681     2.338     0.664     0.467
  AUG-23-2013 03:49:00      1.673     2.335     0.662     0.465
  AUG-23-2013 03:50:00      1.664     2.332     0.660     0.463
  AUG-23-2013 03:51:00      1.655     2.329     0.658     0.461
  AUG-23-2013 03:52:00      1.646     2.326     0.656     0.460
  AUG-23-2013 03:53:00      1.637     2.322     0.654     0.458
  AUG-23-2013 03:54:00      1.628     2.319     0.652     0.456
  AUG-23-2013 03:55:00      1.621     2.317     0.650     0.454
  AUG-23-2013 03:56:00      1.614     2.314     0.648     0.453
  AUG-23-2013 03:57:00      1.610     2.313     0.647     0.452
  AUG-23-2013 03:58:00      1.607     2.312     0.647     0.452
  AUG-23-2013 03:59:00      1.605     2.311     0.646     0.451
  AUG-23-2013 04:00:00      1.604     2.310     0.646     0.451
  AUG-23-2013 04:01:00      1.603     2.310     0.646     0.451
  AUG-23-2013 04:02:00      1.602     2.310     0.646     0.450
  AUG-23-2013 04:03:00      1.601     2.310     0.645     0.450
  AUG-23-2013 04:04:00      1.601     2.309     0.645     0.450
  AUG-23-2013 04:05:00      1.601     2.309     0.645     0.450
  AUG-23-2013 04:06:00      1.600     2.309     0.645     0.450
  AUG-23-2013 04:07:00      1.600     2.309     0.645     0.450
  AUG-23-2013 04:08:00      1.600     2.309     0.645     0.450
  AUG-23-2013 04:09:00      1.600     2.309     0.645     0.450
  AUG-23-2013 04:10:00      1.600     2.309     0.645     0.450
  AUG-23-2013 04:11:00      1.600     2.309     0.645     0.450
  AUG-23-2013 04:12:00      1.600     2.309     0.645     0.450
  AUG-23-2013 04:13:00      1.600     2.309     0.645     0.450
  AUG-23-2013 04:14:00      1.600     2.309     0.645     0.450
  AUG-23-2013 04:15:00      1.600     2.309     0.645     0.450
  AUG-23-2013 04:16:00      1.600     2.309     0.645     0.450
  AUG-23-2013 04:17:00      1.600     2.309     0.645     0.450
  AUG-23-2013 04:18:00      1.600     2.309     0.645     0.450
  AUG-23-2013 04:19:00      1.600     2.309     0.645     0.450
  AUG-23-2013 04:20:00      1.600     2.309     0.645     0.450
  AUG-23-2013 04:21:00      1.600     2.309     0.645     0.450
  AUG-23-2013 04:22:00      1.600     2.309     0.645     0.450
  AUG-23-2013 04:23:00      1.600     2.309     0.645     0.450
  AUG-23-2013 04:24:00      1.600     2.309     0.645     0.450
  AUG-23-2013 04:25:00      1.600     2.309     0.645     0.450
  AUG-23-2013 04:26:00      1.600     2.309     0.645     0.450
  AUG-23-2013 04:27:00      1.600     2.309     0.645     0.450
  AUG-23-2013 04:28:00      1.600     2.309     0.645     0.450
  AUG-23-2013 04:29:00      1.600     2.309     0.645     0.450
  AUG-23-2013 04:30:00      1.600     2.309     0.645     0.450
  AUG-23-2013 04:31:00      1.600     2.309     0.645     0.450
  AUG-23-2013 04:32:00      1.600     2.309     0.645     0.450
  AUG-23-2013 04:33:00      1.600     2.309     0.645     0.450
  AUG-23-2013 04:34:00      1.600     2.309     0.645     0.450
  AUG-23-2013 04:35:00      1.600     2.309     0.645     0.450
  AUG-23-2013 04:36:00      1.600     2.309     0.645     0.450
  AUG-23-2013 04:37:00      1.600     2.309     0.645     0.450
  AUG-23-2013 04:38:00      1.600     2.309     0.645     0.450
  AUG-23-2013 04:39:00      1.600     2.309     0.645     0.450
  AUG-23-2013 04:40:00      1.600     2.309     0.645     0.450
  AUG-23-2013 04:41:00      1.600     2.309     0.645     0.450
  AUG-23-2013 04:42:00      1.600     2.309     0.645     0.450
  AUG-23-2013 04:43:00      1.600     2.309     0.645     0.450
  AUG-23-2013 04:44:00      1.600     2.309     0.645     0.450
  AUG-23-2013 04:45:00      1.600     2.309     0.645     0.450
  AUG-23-2013 04:46:00      1.600     2.309     0.645     0.450
  AUG-23-2013 04:47:00      1.600     2.309     0.645     0.450
  AUG-23-2013 04:48:00      1.600     2.309     0.645     0.450
  AUG-23-2013 04:49:00      1.600     2.309     0.645     0.450
  AUG-23-2013 04:50:00      1.600     2.309     0.645     0.450
  AUG-23-2013 04:51:00      1.600     2.309     0.645     0.450
  AUG-23-2013 04:52:00      1.600     2.309     0.645     0.450
  AUG-23-2013 04:53:00      1.600     2.309     0.645     0.450
  AUG-23-2013 04:54:00      1.600     2.309     0.645     0.450
  AUG-23-2013 04:55:00      1.600     2.309     0.645     0.450
  AUG-23-2013 04:56:00      1.600     2.309     0.645     0.450
  AUG-23-2013 04:57:00      1.600     2.309     0.645     0.450
  AUG-23-2013 04:58:00      1.600     2.309     0.645     0.450
  AUG-23-2013 04:59:00      1.600     2.309     0.645     0.450
  AUG-23-2013 05:00:00      1.600     2.309     0.645     0.450
  

  Analysis begun on:  Mon Aug 09 22:49:57 2021
  Analysis ended on:  Mon Aug 09 22:49:57 2021
  Total elapsed time: < 1 sec