
  EPA STORM WATER MANAGEMENT MODEL - VERSION 5.1 (Build 5.1.009)
  --------------------------------------------------------------

  WARNING 04: minimum elevation drop used for Conduit 2
  
  *********************************************************
  NOTE: The summary statistics displayed in this report are
  based on results found at every computational time step,  
  not just on results from each reporting time step.
  *********************************************************
  
  ****************
  Analysis Options
  ****************
  Flow Units ............... CMS
  Process Models:
    Rainfall/Runoff ........ NO
    RDII ................... NO
    Snowmelt ............... NO
    Groundwater ............ NO
    Flow Routing ........... YES
    Ponding Allowed ........ NO
    Water Quality .......... NO
  Flow Routing Method ...... DYNWAVE
  Starting Date ............ AUG-23-2013 00:00:00
  Ending Date .............. AUG-23-2013 05:00:00
  Antecedent Dry Days ...... 0.0
  Report Time Step ......... 00:01:00
  Routing Time Step ........ 60.00 sec
  Variable Time Step ....... YES
  Maximum Trials ........... 8
  Number of Threads ........ 1
  Head Tolerance ........... 0.001500 m
  
  
  **************************        Volume        Volume
  Flow Routing Continuity        hectare-m      10^6 ltr
  **************************     ---------     ---------
  Dry Weather Inflow .......         0.000         0.000
  Wet Weather Inflow .......         0.000         0.000
  Groundwater Inflow .......         0.000         0.000
  RDII Inflow ..............         0.000         0.000
  External Inflow ..........         5.147        51.473
  External Outflow .........         3.978        39.785
  Flooding Loss ............         1.172        11.725
  Evaporation Loss .........         0.000         0.000
  Exfiltration Loss ........         0.000         0.000
  Initial Stored Volume ....         0.094         0.939
  Final Stored Volume ......         0.104         1.036
  Continuity Error (%) .....        -0.257
  
  
  ***************************
  Time-Step Critical Elements
  ***************************
  Link 3 (55.67%)
  Link 2 (44.25%)
  
  
  ********************************
  Highest Flow Instability Indexes
  ********************************
  All links are stable.
  
  
  *************************
  Routing Time Step Summary
  *************************
  Minimum Time Step           :     9.75 sec
  Average Time Step           :    13.98 sec
  Maximum Time Step           :    18.00 sec
  Percent in Steady State     :     0.00
  Average Iterations per Step :     2.26
  Percent Not Converging      :     0.23
  
  
  ******************
  Node Depth Summary
  ******************
  
  ---------------------------------------------------------------------------------
                                 Average  Maximum  Maximum  Time of Max    Reported
                                   Depth    Depth      HGL   Occurrence   Max Depth
  Node                 Type       Meters   Meters   Meters  days hr:min      Meters
  ---------------------------------------------------------------------------------
  1                    JUNCTION     0.68     1.11    40.28     0  02:00        0.34
  2                    JUNCTION     1.42     2.00    31.46     0  01:24        0.61
  3                    JUNCTION     0.78     1.05    30.51     0  01:25        0.32
  4                    JUNCTION     0.72     0.94    29.31     0  01:36        0.29
  5                    JUNCTION     0.82     1.13    26.83     0  01:28        0.34
  6                    JUNCTION     1.16     1.40    26.04     0  01:12        0.43
  7                    JUNCTION     0.95     1.13    25.42     0  01:14        0.35
  8                    OUTFALL      0.79     0.90    24.39     0  01:14        0.27
  
  
  *******************
  Node Inflow Summary
  *******************
  
  -------------------------------------------------------------------------------------------------
                                  Maximum  Maximum                  Lateral       Total        Flow
                                  Lateral    Total  Time of Max      Inflow      Inflow     Balance
                                   Inflow   Inflow   Occurrence      Volume      Volume       Error
  Node                 Type           CMS      CMS  days hr:min    10^6 ltr    10^6 ltr     Percent
  -------------------------------------------------------------------------------------------------
  1                    JUNCTION     6.281    6.281     0  01:58        51.5        51.5       0.000
  2                    JUNCTION     0.000    6.281     0  02:00           0        51.5       0.026
  3                    JUNCTION     0.000    4.139     0  01:24           0          46      -0.128
  4                    JUNCTION     0.000    4.138     0  01:25           0        46.1      -0.010
  5                    JUNCTION     0.000    4.137     0  01:36           0        46.1       0.012
  6                    JUNCTION     0.000    4.137     0  01:29           0        46.1       0.056
  7                    JUNCTION     0.000    2.923     0  01:12           0        39.8      -0.047
  8                    OUTFALL      0.000    2.902     0  01:14           0        39.8       0.000
  
  
  **********************
  Node Surcharge Summary
  **********************
  
  Surcharging occurs when water rises above the top of the highest conduit.
  ---------------------------------------------------------------------
                                               Max. Height   Min. Depth
                                   Hours       Above Crown    Below Rim
  Node                 Type      Surcharged         Meters       Meters
  ---------------------------------------------------------------------
  2                    JUNCTION        1.72          0.600        0.000
  6                    JUNCTION        1.68          0.000        0.000
  
  
  *********************
  Node Flooding Summary
  *********************
  
  Flooding refers to all water that overflows a node, whether it ponds or not.
  --------------------------------------------------------------------------
                                                             Total   Maximum
                                 Maximum   Time of Max       Flood    Ponded
                        Hours       Rate    Occurrence      Volume     Depth
  Node                 Flooded       CMS   days hr:min    10^6 ltr    Meters
  --------------------------------------------------------------------------
  2                       1.18     2.143      0  02:00       5.418     0.000
  6                       1.67     1.239      0  01:29       6.306     0.000
  
  
  ***********************
  Outfall Loading Summary
  ***********************
  
  -----------------------------------------------------------
                         Flow       Avg       Max       Total
                         Freq      Flow      Flow      Volume
  Outfall Node           Pcnt       CMS       CMS    10^6 ltr
  -----------------------------------------------------------
  8                    100.00     2.297     2.902      39.786
  -----------------------------------------------------------
  System               100.00     2.297     2.902      39.786
  
  
  ********************
  Link Flow Summary
  ********************
  
  -----------------------------------------------------------------------------
                                 Maximum  Time of Max   Maximum    Max/    Max/
                                  |Flow|   Occurrence   |Veloc|    Full    Full
  Link                 Type          CMS  days hr:min     m/sec    Flow   Depth
  -----------------------------------------------------------------------------
  1                    CONDUIT     6.281     0  02:00      4.32    0.97    0.90
  2                    CONDUIT     4.139     0  01:24      2.90   53.76    0.87
  3                    CONDUIT     4.138     0  01:25      3.54    0.91    0.71
  4                    CONDUIT     4.137     0  01:36      3.42    0.80    0.74
  5                    CONDUIT     4.137     0  01:29      2.83    0.95    0.90
  6                    CONDUIT     2.923     0  01:12      2.00    1.36    0.91
  7                    CONDUIT     2.902     0  01:14      2.42    1.01    0.73
  
  
  ***************************
  Flow Classification Summary
  ***************************
  
  -------------------------------------------------------------------------------------
                      Adjusted    ---------- Fraction of Time in Flow Class ---------- 
                       /Actual         Up    Down  Sub   Sup   Up    Down  Norm  Inlet 
  Conduit               Length    Dry  Dry   Dry   Crit  Crit  Crit  Crit  Ltd   Ctrl  
  -------------------------------------------------------------------------------------
  1                       1.00   0.00  0.00  0.00  0.76  0.24  0.00  0.00  1.00  0.00
  2                       1.00   0.00  0.00  0.00  1.00  0.00  0.00  0.00  0.00  0.00
  3                       1.00   0.00  0.00  0.00  0.00  1.00  0.00  0.00  0.42  0.00
  4                       1.00   0.00  0.00  0.00  0.00  1.00  0.00  0.00  0.99  0.00
  5                       1.00   0.00  0.00  0.00  1.00  0.00  0.00  0.00  0.73  0.00
  6                       1.00   0.00  0.00  0.00  1.00  0.00  0.00  0.00  0.00  0.00
  7                       1.00   0.00  0.00  0.00  1.00  0.00  0.00  0.00  0.00  0.00
  
  
  *************************
  Conduit Surcharge Summary
  *************************
  
  ----------------------------------------------------------------------------
                                                           Hours        Hours 
                         --------- Hours Full --------   Above Full   Capacity
  Conduit                Both Ends  Upstream  Dnstream   Normal Flow   Limited
  ----------------------------------------------------------------------------
  1                           0.01      0.01      1.72      0.01         0.01
  2                           0.01      1.72      0.01      5.00         0.01
  6                           0.01      0.01      0.01      2.31         0.01
  7                           0.01      0.01      0.01      1.68         0.01
  
  
  ************
  Node Results
  ************
  
  <<< Node 1 >>>
  ----------------------------------------------------------------
                           Inflow  Flooding     Depth      Head
  Date        Time            CMS       CMS    meters    meters
  ----------------------------------------------------------------
  AUG-23-2013 00:01:00      1.600     0.000     0.473    39.643
  AUG-23-2013 00:02:00      1.600     0.000     0.474    39.644
  AUG-23-2013 00:03:00      1.600     0.000     0.474    39.644
  AUG-23-2013 00:04:00      1.600     0.000     0.474    39.644
  AUG-23-2013 00:05:00      1.600     0.000     0.474    39.644
  AUG-23-2013 00:06:00      1.600     0.000     0.474    39.644
  AUG-23-2013 00:07:00      1.606     0.000     0.474    39.644
  AUG-23-2013 00:08:00      1.614     0.000     0.475    39.645
  AUG-23-2013 00:09:00      1.623     0.000     0.476    39.646
  AUG-23-2013 00:10:00      1.631     0.000     0.478    39.648
  AUG-23-2013 00:11:00      1.641     0.000     0.479    39.649
  AUG-23-2013 00:12:00      1.652     0.000     0.481    39.651
  AUG-23-2013 00:13:00      1.661     0.000     0.482    39.652
  AUG-23-2013 00:14:00      1.670     0.000     0.484    39.654
  AUG-23-2013 00:15:00      1.678     0.000     0.485    39.655
  AUG-23-2013 00:16:00      1.687     0.000     0.486    39.656
  AUG-23-2013 00:17:00      1.695     0.000     0.488    39.658
  AUG-23-2013 00:18:00      1.703     0.000     0.489    39.659
  AUG-23-2013 00:19:00      1.710     0.000     0.490    39.660
  AUG-23-2013 00:20:00      1.716     0.000     0.491    39.661
  AUG-23-2013 00:21:00      1.718     0.000     0.492    39.662
  AUG-23-2013 00:22:00      1.718     0.000     0.492    39.662
  AUG-23-2013 00:23:00      1.726     0.000     0.492    39.662
  AUG-23-2013 00:24:00      1.736     0.000     0.494    39.664
  AUG-23-2013 00:25:00      1.745     0.000     0.495    39.665
  AUG-23-2013 00:26:00      1.754     0.000     0.496    39.666
  AUG-23-2013 00:27:00      1.763     0.000     0.498    39.668
  AUG-23-2013 00:28:00      1.771     0.000     0.499    39.669
  AUG-23-2013 00:29:00      1.783     0.000     0.500    39.670
  AUG-23-2013 00:30:00      1.795     0.000     0.502    39.672
  AUG-23-2013 00:31:00      1.809     0.000     0.504    39.674
  AUG-23-2013 00:32:00      1.824     0.000     0.506    39.676
  AUG-23-2013 00:33:00      1.834     0.000     0.508    39.678
  AUG-23-2013 00:34:00      1.843     0.000     0.510    39.680
  AUG-23-2013 00:35:00      1.860     0.000     0.512    39.682
  AUG-23-2013 00:36:00      1.881     0.000     0.514    39.684
  AUG-23-2013 00:37:00      1.900     0.000     0.517    39.687
  AUG-23-2013 00:38:00      1.917     0.000     0.520    39.690
  AUG-23-2013 00:39:00      1.934     0.000     0.522    39.692
  AUG-23-2013 00:40:00      1.950     0.000     0.525    39.695
  AUG-23-2013 00:41:00      1.967     0.000     0.527    39.697
  AUG-23-2013 00:42:00      1.984     0.000     0.530    39.700
  AUG-23-2013 00:43:00      2.001     0.000     0.532    39.702
  AUG-23-2013 00:44:00      2.017     0.000     0.535    39.705
  AUG-23-2013 00:45:00      2.034     0.000     0.537    39.707
  AUG-23-2013 00:46:00      2.052     0.000     0.540    39.710
  AUG-23-2013 00:47:00      2.072     0.000     0.542    39.712
  AUG-23-2013 00:48:00      2.093     0.000     0.545    39.715
  AUG-23-2013 00:49:00      2.117     0.000     0.548    39.718
  AUG-23-2013 00:50:00      2.142     0.000     0.552    39.722
  AUG-23-2013 00:51:00      2.168     0.000     0.555    39.725
  AUG-23-2013 00:52:00      2.193     0.000     0.559    39.729
  AUG-23-2013 00:53:00      2.222     0.000     0.563    39.733
  AUG-23-2013 00:54:00      2.252     0.000     0.567    39.737
  AUG-23-2013 00:55:00      2.283     0.000     0.571    39.741
  AUG-23-2013 00:56:00      2.315     0.000     0.575    39.745
  AUG-23-2013 00:57:00      2.342     0.000     0.579    39.749
  AUG-23-2013 00:58:00      2.367     0.000     0.583    39.753
  AUG-23-2013 00:59:00      2.413     0.000     0.588    39.758
  AUG-23-2013 01:00:00      2.465     0.000     0.594    39.764
  AUG-23-2013 01:01:00      2.510     0.000     0.601    39.771
  AUG-23-2013 01:02:00      2.553     0.000     0.607    39.777
  AUG-23-2013 01:03:00      2.600     0.000     0.613    39.783
  AUG-23-2013 01:04:00      2.649     0.000     0.620    39.790
  AUG-23-2013 01:05:00      2.702     0.000     0.626    39.796
  AUG-23-2013 01:06:00      2.757     0.000     0.633    39.803
  AUG-23-2013 01:07:00      2.815     0.000     0.641    39.811
  AUG-23-2013 01:08:00      2.874     0.000     0.649    39.819
  AUG-23-2013 01:09:00      2.934     0.000     0.656    39.826
  AUG-23-2013 01:10:00      2.993     0.000     0.664    39.834
  AUG-23-2013 01:11:00      3.073     0.000     0.672    39.842
  AUG-23-2013 01:12:00      3.157     0.000     0.683    39.853
  AUG-23-2013 01:13:00      3.222     0.000     0.692    39.862
  AUG-23-2013 01:14:00      3.282     0.000     0.700    39.870
  AUG-23-2013 01:15:00      3.356     0.000     0.709    39.879
  AUG-23-2013 01:16:00      3.434     0.000     0.719    39.889
  AUG-23-2013 01:17:00      3.517     0.000     0.729    39.899
  AUG-23-2013 01:18:00      3.602     0.000     0.739    39.909
  AUG-23-2013 01:19:00      3.686     0.000     0.750    39.920
  AUG-23-2013 01:20:00      3.771     0.000     0.761    39.931
  AUG-23-2013 01:21:00      3.856     0.000     0.771    39.941
  AUG-23-2013 01:22:00      3.940     0.000     0.782    39.952
  AUG-23-2013 01:23:00      4.042     0.000     0.793    39.963
  AUG-23-2013 01:24:00      4.148     0.000     0.807    39.976
  AUG-23-2013 01:25:00      4.237     0.000     0.819    39.989
  AUG-23-2013 01:26:00      4.321     0.000     0.830    40.000
  AUG-23-2013 01:27:00      4.406     0.000     0.841    40.011
  AUG-23-2013 01:28:00      4.490     0.000     0.852    40.022
  AUG-23-2013 01:29:00      4.575     0.000     0.863    40.033
  AUG-23-2013 01:30:00      4.659     0.000     0.873    40.043
  AUG-23-2013 01:31:00      4.742     0.000     0.884    40.054
  AUG-23-2013 01:32:00      4.825     0.000     0.895    40.065
  AUG-23-2013 01:33:00      4.902     0.000     0.905    40.075
  AUG-23-2013 01:34:00      4.978     0.000     0.915    40.085
  AUG-23-2013 01:35:00      5.060     0.000     0.925    40.095
  AUG-23-2013 01:36:00      5.145     0.000     0.936    40.106
  AUG-23-2013 01:37:00      5.209     0.000     0.946    40.116
  AUG-23-2013 01:38:00      5.268     0.000     0.954    40.124
  AUG-23-2013 01:39:00      5.333     0.000     0.962    40.132
  AUG-23-2013 01:40:00      5.398     0.000     0.971    40.141
  AUG-23-2013 01:41:00      5.465     0.000     0.980    40.150
  AUG-23-2013 01:42:00      5.532     0.000     0.990    40.160
  AUG-23-2013 01:43:00      5.596     0.000     0.999    40.169
  AUG-23-2013 01:44:00      5.660     0.000     1.008    40.178
  AUG-23-2013 01:45:00      5.713     0.000     1.016    40.186
  AUG-23-2013 01:46:00      5.764     0.000     1.024    40.194
  AUG-23-2013 01:47:00      5.825     0.000     1.032    40.202
  AUG-23-2013 01:48:00      5.888     0.000     1.041    40.211
  AUG-23-2013 01:49:00      5.941     0.000     1.050    40.220
  AUG-23-2013 01:50:00      5.992     0.000     1.058    40.228
  AUG-23-2013 01:51:00      6.043     0.000     1.066    40.236
  AUG-23-2013 01:52:00      6.094     0.000     1.074    40.244
  AUG-23-2013 01:53:00      6.137     0.000     1.081    40.251
  AUG-23-2013 01:54:00      6.180     0.000     1.088    40.258
  AUG-23-2013 01:55:00      6.209     0.000     1.094    40.264
  AUG-23-2013 01:56:00      6.236     0.000     1.099    40.269
  AUG-23-2013 01:57:00      6.257     0.000     1.103    40.273
  AUG-23-2013 01:58:00      6.277     0.000     1.107    40.277
  AUG-23-2013 01:59:00      6.281     0.000     1.109    40.279
  AUG-23-2013 02:00:00      6.281     0.000     1.109    40.279
  AUG-23-2013 02:01:00      6.265     0.000     1.108    40.278
  AUG-23-2013 02:02:00      6.245     0.000     1.105    40.275
  AUG-23-2013 02:03:00      6.219     0.000     1.101    40.271
  AUG-23-2013 02:04:00      6.193     0.000     1.097    40.267
  AUG-23-2013 02:05:00      6.153     0.000     1.091    40.261
  AUG-23-2013 02:06:00      6.111     0.000     1.084    40.254
  AUG-23-2013 02:07:00      6.062     0.000     1.077    40.247
  AUG-23-2013 02:08:00      6.011     0.000     1.069    40.239
  AUG-23-2013 02:09:00      5.960     0.000     1.061    40.231
  AUG-23-2013 02:10:00      5.909     0.000     1.053    40.223
  AUG-23-2013 02:11:00      5.848     0.000     1.045    40.215
  AUG-23-2013 02:12:00      5.785     0.000     1.036    40.206
  AUG-23-2013 02:13:00      5.732     0.000     1.027    40.197
  AUG-23-2013 02:14:00      5.681     0.000     1.020    40.190
  AUG-23-2013 02:15:00      5.620     0.000     1.012    40.182
  AUG-23-2013 02:16:00      5.557     0.000     1.003    40.173
  AUG-23-2013 02:17:00      5.490     0.000     0.993    40.163
  AUG-23-2013 02:18:00      5.423     0.000     0.984    40.154
  AUG-23-2013 02:19:00      5.357     0.000     0.975    40.145
  AUG-23-2013 02:20:00      5.292     0.000     0.966    40.136
  AUG-23-2013 02:21:00      5.231     0.000     0.957    40.127
  AUG-23-2013 02:22:00      5.172     0.000     0.949    40.119
  AUG-23-2013 02:23:00      5.092     0.000     0.939    40.109
  AUG-23-2013 02:24:00      5.007     0.000     0.929    40.099
  AUG-23-2013 02:25:00      4.930     0.000     0.918    40.088
  AUG-23-2013 02:26:00      4.854     0.000     0.908    40.078
  AUG-23-2013 02:27:00      4.773     0.000     0.898    40.068
  AUG-23-2013 02:28:00      4.690     0.000     0.888    40.058
  AUG-23-2013 02:29:00      4.606     0.000     0.877    40.047
  AUG-23-2013 02:30:00      4.522     0.000     0.867    40.037
  AUG-23-2013 02:31:00      4.437     0.000     0.856    40.026
  AUG-23-2013 02:32:00      4.353     0.000     0.845    40.015
  AUG-23-2013 02:33:00      4.268     0.000     0.834    40.004
  AUG-23-2013 02:34:00      4.184     0.000     0.824    39.994
  AUG-23-2013 02:35:00      4.082     0.000     0.812    39.982
  AUG-23-2013 02:36:00      3.977     0.000     0.799    39.969
  AUG-23-2013 02:37:00      3.888     0.000     0.787    39.957
  AUG-23-2013 02:38:00      3.804     0.000     0.777    39.947
  AUG-23-2013 02:39:00      3.720     0.000     0.766    39.936
  AUG-23-2013 02:40:00      3.636     0.000     0.755    39.925
  AUG-23-2013 02:41:00      3.551     0.000     0.745    39.915
  AUG-23-2013 02:42:00      3.467     0.000     0.735    39.904
  AUG-23-2013 02:43:00      3.388     0.000     0.724    39.894
  AUG-23-2013 02:44:00      3.310     0.000     0.714    39.884
  AUG-23-2013 02:45:00      3.247     0.000     0.705    39.875
  AUG-23-2013 02:46:00      3.188     0.000     0.697    39.867
  AUG-23-2013 02:47:00      3.109     0.000     0.689    39.859
  AUG-23-2013 02:48:00      3.024     0.000     0.678    39.848
  AUG-23-2013 02:49:00      2.960     0.000     0.669    39.839
  AUG-23-2013 02:50:00      2.901     0.000     0.661    39.831
  AUG-23-2013 02:51:00      2.842     0.000     0.653    39.823
  AUG-23-2013 02:52:00      2.783     0.000     0.645    39.815
  AUG-23-2013 02:53:00      2.728     0.000     0.638    39.808
  AUG-23-2013 02:54:00      2.673     0.000     0.630    39.800
  AUG-23-2013 02:55:00      2.623     0.000     0.623    39.793
  AUG-23-2013 02:56:00      2.574     0.000     0.617    39.787
  AUG-23-2013 02:57:00      2.531     0.000     0.611    39.781
  AUG-23-2013 02:58:00      2.488     0.000     0.605    39.775
  AUG-23-2013 02:59:00      2.438     0.000     0.599    39.769
  AUG-23-2013 03:00:00      2.385     0.000     0.592    39.762
  AUG-23-2013 03:01:00      2.354     0.000     0.586    39.756
  AUG-23-2013 03:02:00      2.329     0.000     0.582    39.752
  AUG-23-2013 03:03:00      2.299     0.000     0.578    39.748
  AUG-23-2013 03:04:00      2.267     0.000     0.574    39.744
  AUG-23-2013 03:05:00      2.237     0.000     0.569    39.739
  AUG-23-2013 03:06:00      2.207     0.000     0.565    39.735
  AUG-23-2013 03:07:00      2.180     0.000     0.561    39.731
  AUG-23-2013 03:08:00      2.155     0.000     0.558    39.728
  AUG-23-2013 03:09:00      2.130     0.000     0.554    39.724
  AUG-23-2013 03:10:00      2.105     0.000     0.551    39.721
  AUG-23-2013 03:11:00      2.082     0.000     0.547    39.717
  AUG-23-2013 03:12:00      2.061     0.000     0.544    39.714
  AUG-23-2013 03:13:00      2.043     0.000     0.541    39.711
  AUG-23-2013 03:14:00      2.026     0.000     0.539    39.709
  AUG-23-2013 03:15:00      2.009     0.000     0.536    39.706
  AUG-23-2013 03:16:00      1.993     0.000     0.534    39.704
  AUG-23-2013 03:17:00      1.976     0.000     0.532    39.702
  AUG-23-2013 03:18:00      1.959     0.000     0.529    39.699
  AUG-23-2013 03:19:00      1.942     0.000     0.527    39.697
  AUG-23-2013 03:20:00      1.926     0.000     0.524    39.694
  AUG-23-2013 03:21:00      1.909     0.000     0.522    39.692
  AUG-23-2013 03:22:00      1.891     0.000     0.519    39.689
  AUG-23-2013 03:23:00      1.871     0.000     0.517    39.687
  AUG-23-2013 03:24:00      1.850     0.000     0.514    39.684
  AUG-23-2013 03:25:00      1.838     0.000     0.511    39.681
  AUG-23-2013 03:26:00      1.830     0.000     0.510    39.680
  AUG-23-2013 03:27:00      1.817     0.000     0.508    39.678
  AUG-23-2013 03:28:00      1.802     0.000     0.506    39.676
  AUG-23-2013 03:29:00      1.789     0.000     0.504    39.674
  AUG-23-2013 03:30:00      1.777     0.000     0.502    39.672
  AUG-23-2013 03:31:00      1.767     0.000     0.500    39.670
  AUG-23-2013 03:32:00      1.759     0.000     0.499    39.669
  AUG-23-2013 03:33:00      1.750     0.000     0.498    39.668
  AUG-23-2013 03:34:00      1.741     0.000     0.496    39.666
  AUG-23-2013 03:35:00      1.731     0.000     0.495    39.665
  AUG-23-2013 03:36:00      1.721     0.000     0.493    39.663
  AUG-23-2013 03:37:00      1.718     0.000     0.492    39.662
  AUG-23-2013 03:38:00      1.718     0.000     0.492    39.662
  AUG-23-2013 03:39:00      1.713     0.000     0.492    39.662
  AUG-23-2013 03:40:00      1.707     0.000     0.491    39.661
  AUG-23-2013 03:41:00      1.699     0.000     0.490    39.660
  AUG-23-2013 03:42:00      1.691     0.000     0.489    39.659
  AUG-23-2013 03:43:00      1.683     0.000     0.487    39.657
  AUG-23-2013 03:44:00      1.674     0.000     0.486    39.656
  AUG-23-2013 03:45:00      1.666     0.000     0.485    39.655
  AUG-23-2013 03:46:00      1.657     0.000     0.483    39.653
  AUG-23-2013 03:47:00      1.647     0.000     0.482    39.652
  AUG-23-2013 03:48:00      1.636     0.000     0.480    39.650
  AUG-23-2013 03:49:00      1.627     0.000     0.479    39.649
  AUG-23-2013 03:50:00      1.619     0.000     0.478    39.648
  AUG-23-2013 03:51:00      1.610     0.000     0.476    39.646
  AUG-23-2013 03:52:00      1.602     0.000     0.475    39.645
  AUG-23-2013 03:53:00      1.600     0.000     0.474    39.644
  AUG-23-2013 03:54:00      1.600     0.000     0.474    39.644
  AUG-23-2013 03:55:00      1.600     0.000     0.474    39.644
  AUG-23-2013 03:56:00      1.600     0.000     0.474    39.644
  AUG-23-2013 03:57:00      1.600     0.000     0.474    39.644
  AUG-23-2013 03:58:00      1.600     0.000     0.474    39.644
  AUG-23-2013 03:59:00      1.600     0.000     0.474    39.644
  AUG-23-2013 04:00:00      1.600     0.000     0.474    39.644
  AUG-23-2013 04:01:00      1.600     0.000     0.474    39.644
  AUG-23-2013 04:02:00      1.600     0.000     0.474    39.644
  AUG-23-2013 04:03:00      1.600     0.000     0.474    39.644
  AUG-23-2013 04:04:00      1.600     0.000     0.474    39.644
  AUG-23-2013 04:05:00      1.600     0.000     0.474    39.644
  AUG-23-2013 04:06:00      1.600     0.000     0.474    39.644
  AUG-23-2013 04:07:00      1.600     0.000     0.474    39.644
  AUG-23-2013 04:08:00      1.600     0.000     0.474    39.644
  AUG-23-2013 04:09:00      1.600     0.000     0.474    39.644
  AUG-23-2013 04:10:00      1.600     0.000     0.474    39.644
  AUG-23-2013 04:11:00      1.600     0.000     0.474    39.644
  AUG-23-2013 04:12:00      1.600     0.000     0.474    39.644
  AUG-23-2013 04:13:00      1.600     0.000     0.474    39.644
  AUG-23-2013 04:14:00      1.600     0.000     0.474    39.644
  AUG-23-2013 04:15:00      1.600     0.000     0.474    39.644
  AUG-23-2013 04:16:00      1.600     0.000     0.474    39.644
  AUG-23-2013 04:17:00      1.600     0.000     0.474    39.644
  AUG-23-2013 04:18:00      1.600     0.000     0.474    39.644
  AUG-23-2013 04:19:00      1.600     0.000     0.474    39.644
  AUG-23-2013 04:20:00      1.600     0.000     0.474    39.644
  AUG-23-2013 04:21:00      1.600     0.000     0.474    39.644
  AUG-23-2013 04:22:00      1.600     0.000     0.474    39.644
  AUG-23-2013 04:23:00      1.600     0.000     0.474    39.644
  AUG-23-2013 04:24:00      1.600     0.000     0.474    39.644
  AUG-23-2013 04:25:00      1.600     0.000     0.474    39.644
  AUG-23-2013 04:26:00      1.600     0.000     0.474    39.644
  AUG-23-2013 04:27:00      1.600     0.000     0.474    39.644
  AUG-23-2013 04:28:00      1.600     0.000     0.474    39.644
  AUG-23-2013 04:29:00      1.600     0.000     0.474    39.644
  AUG-23-2013 04:30:00      1.600     0.000     0.474    39.644
  AUG-23-2013 04:31:00      1.600     0.000     0.474    39.644
  AUG-23-2013 04:32:00      1.600     0.000     0.474    39.644
  AUG-23-2013 04:33:00      1.600     0.000     0.474    39.644
  AUG-23-2013 04:34:00      1.600     0.000     0.474    39.644
  AUG-23-2013 04:35:00      1.600     0.000     0.474    39.644
  AUG-23-2013 04:36:00      1.600     0.000     0.474    39.644
  AUG-23-2013 04:37:00      1.600     0.000     0.474    39.644
  AUG-23-2013 04:38:00      1.600     0.000     0.474    39.644
  AUG-23-2013 04:39:00      1.600     0.000     0.474    39.644
  AUG-23-2013 04:40:00      1.600     0.000     0.474    39.644
  AUG-23-2013 04:41:00      1.600     0.000     0.474    39.644
  AUG-23-2013 04:42:00      1.600     0.000     0.474    39.644
  AUG-23-2013 04:43:00      1.600     0.000     0.474    39.644
  AUG-23-2013 04:44:00      1.600     0.000     0.474    39.644
  AUG-23-2013 04:45:00      1.600     0.000     0.474    39.644
  AUG-23-2013 04:46:00      1.600     0.000     0.474    39.644
  AUG-23-2013 04:47:00      1.600     0.000     0.474    39.644
  AUG-23-2013 04:48:00      1.600     0.000     0.474    39.644
  AUG-23-2013 04:49:00      1.600     0.000     0.474    39.644
  AUG-23-2013 04:50:00      1.600     0.000     0.474    39.644
  AUG-23-2013 04:51:00      1.600     0.000     0.474    39.644
  AUG-23-2013 04:52:00      1.600     0.000     0.474    39.644
  AUG-23-2013 04:53:00      1.600     0.000     0.474    39.644
  AUG-23-2013 04:54:00      1.600     0.000     0.474    39.644
  AUG-23-2013 04:55:00      1.600     0.000     0.474    39.644
  AUG-23-2013 04:56:00      1.600     0.000     0.474    39.644
  AUG-23-2013 04:57:00      1.600     0.000     0.474    39.644
  AUG-23-2013 04:58:00      1.600     0.000     0.474    39.644
  AUG-23-2013 04:59:00      1.600     0.000     0.474    39.644
  AUG-23-2013 05:00:00      1.600     0.000     0.474    39.644
  
  
  <<< Node 2 >>>
  ----------------------------------------------------------------
                           Inflow  Flooding     Depth      Head
  Date        Time            CMS       CMS    meters    meters
  ----------------------------------------------------------------
  AUG-23-2013 00:01:00      1.597     0.000     1.086    30.546
  AUG-23-2013 00:02:00      1.599     0.000     1.074    30.534
  AUG-23-2013 00:03:00      1.600     0.000     1.030    30.490
  AUG-23-2013 00:04:00      1.600     0.000     1.008    30.468
  AUG-23-2013 00:05:00      1.600     0.000     0.994    30.454
  AUG-23-2013 00:06:00      1.600     0.000     0.987    30.447
  AUG-23-2013 00:07:00      1.602     0.000     0.983    30.443
  AUG-23-2013 00:08:00      1.608     0.000     0.981    30.441
  AUG-23-2013 00:09:00      1.616     0.000     0.981    30.441
  AUG-23-2013 00:10:00      1.625     0.000     0.983    30.443
  AUG-23-2013 00:11:00      1.634     0.000     0.985    30.445
  AUG-23-2013 00:12:00      1.644     0.000     0.987    30.447
  AUG-23-2013 00:13:00      1.654     0.000     0.990    30.450
  AUG-23-2013 00:14:00      1.663     0.000     0.993    30.453
  AUG-23-2013 00:15:00      1.671     0.000     0.996    30.456
  AUG-23-2013 00:16:00      1.680     0.000     0.999    30.459
  AUG-23-2013 00:17:00      1.688     0.000     1.002    30.462
  AUG-23-2013 00:18:00      1.697     0.000     1.004    30.464
  AUG-23-2013 00:19:00      1.704     0.000     1.007    30.467
  AUG-23-2013 00:20:00      1.711     0.000     1.009    30.469
  AUG-23-2013 00:21:00      1.716     0.000     1.011    30.471
  AUG-23-2013 00:22:00      1.718     0.000     1.013    30.473
  AUG-23-2013 00:23:00      1.720     0.000     1.014    30.474
  AUG-23-2013 00:24:00      1.729     0.000     1.016    30.476
  AUG-23-2013 00:25:00      1.738     0.000     1.018    30.478
  AUG-23-2013 00:26:00      1.747     0.000     1.020    30.480
  AUG-23-2013 00:27:00      1.756     0.000     1.023    30.483
  AUG-23-2013 00:28:00      1.765     0.000     1.025    30.485
  AUG-23-2013 00:29:00      1.774     0.000     1.028    30.488
  AUG-23-2013 00:30:00      1.786     0.000     1.031    30.491
  AUG-23-2013 00:31:00      1.799     0.000     1.034    30.494
  AUG-23-2013 00:32:00      1.813     0.000     1.038    30.498
  AUG-23-2013 00:33:00      1.826     0.000     1.042    30.502
  AUG-23-2013 00:34:00      1.836     0.000     1.046    30.506
  AUG-23-2013 00:35:00      1.847     0.000     1.050    30.510
  AUG-23-2013 00:36:00      1.866     0.000     1.054    30.514
  AUG-23-2013 00:37:00      1.886     0.000     1.059    30.519
  AUG-23-2013 00:38:00      1.904     0.000     1.064    30.524
  AUG-23-2013 00:39:00      1.921     0.000     1.070    30.530
  AUG-23-2013 00:40:00      1.938     0.000     1.075    30.535
  AUG-23-2013 00:41:00      1.954     0.000     1.081    30.541
  AUG-23-2013 00:42:00      1.971     0.000     1.086    30.546
  AUG-23-2013 00:43:00      1.989     0.000     1.091    30.551
  AUG-23-2013 00:44:00      2.005     0.000     1.097    30.557
  AUG-23-2013 00:45:00      2.022     0.000     1.102    30.562
  AUG-23-2013 00:46:00      2.039     0.000     1.107    30.567
  AUG-23-2013 00:47:00      2.057     0.000     1.113    30.573
  AUG-23-2013 00:48:00      2.078     0.000     1.119    30.579
  AUG-23-2013 00:49:00      2.100     0.000     1.125    30.585
  AUG-23-2013 00:50:00      2.124     0.000     1.132    30.592
  AUG-23-2013 00:51:00      2.149     0.000     1.139    30.599
  AUG-23-2013 00:52:00      2.175     0.000     1.147    30.607
  AUG-23-2013 00:53:00      2.202     0.000     1.155    30.615
  AUG-23-2013 00:54:00      2.231     0.000     1.164    30.624
  AUG-23-2013 00:55:00      2.261     0.000     1.173    30.633
  AUG-23-2013 00:56:00      2.293     0.000     1.183    30.643
  AUG-23-2013 00:57:00      2.323     0.000     1.193    30.653
  AUG-23-2013 00:58:00      2.349     0.000     1.202    30.662
  AUG-23-2013 00:59:00      2.381     0.000     1.212    30.672
  AUG-23-2013 01:00:00      2.429     0.000     1.224    30.684
  AUG-23-2013 01:01:00      2.479     0.000     1.238    30.698
  AUG-23-2013 01:02:00      2.523     0.000     1.254    30.714
  AUG-23-2013 01:03:00      2.568     0.000     1.269    30.729
  AUG-23-2013 01:04:00      2.616     0.000     1.286    30.746
  AUG-23-2013 01:05:00      2.667     0.000     1.303    30.763
  AUG-23-2013 01:06:00      2.721     0.000     1.322    30.782
  AUG-23-2013 01:07:00      2.777     0.000     1.343    30.803
  AUG-23-2013 01:08:00      2.836     0.000     1.365    30.825
  AUG-23-2013 01:09:00      2.895     0.000     1.389    30.849
  AUG-23-2013 01:10:00      2.952     0.000     1.469    30.929
  AUG-23-2013 01:11:00      3.020     0.000     1.488    30.948
  AUG-23-2013 01:12:00      3.103     0.000     1.525    30.985
  AUG-23-2013 01:13:00      3.183     0.000     1.559    31.019
  AUG-23-2013 01:14:00      3.241     0.000     1.582    31.042
  AUG-23-2013 01:15:00      3.310     0.000     1.615    31.075
  AUG-23-2013 01:16:00      3.386     0.000     1.648    31.108
  AUG-23-2013 01:17:00      3.464     0.000     1.680    31.140
  AUG-23-2013 01:18:00      3.552     0.000     1.726    31.186
  AUG-23-2013 01:19:00      3.632     0.000     1.752    31.212
  AUG-23-2013 01:20:00      3.722     0.000     1.805    31.265
  AUG-23-2013 01:21:00      3.803     0.000     1.835    31.295
  AUG-23-2013 01:22:00      3.890     0.000     1.882    31.342
  AUG-23-2013 01:23:00      3.982     0.000     1.930    31.390
  AUG-23-2013 01:24:00      4.081     0.000     1.968    31.428
  AUG-23-2013 01:25:00      4.180     0.045     2.000    31.460
  AUG-23-2013 01:26:00      4.270     0.131     2.000    31.460
  AUG-23-2013 01:27:00      4.356     0.211     2.000    31.460
  AUG-23-2013 01:28:00      4.440     0.305     2.000    31.460
  AUG-23-2013 01:29:00      4.525     0.384     2.000    31.460
  AUG-23-2013 01:30:00      4.609     0.478     2.000    31.460
  AUG-23-2013 01:31:00      4.693     0.557     2.000    31.460
  AUG-23-2013 01:32:00      4.777     0.634     2.000    31.460
  AUG-23-2013 01:33:00      4.857     0.724     2.000    31.460
  AUG-23-2013 01:34:00      4.934     0.795     2.000    31.460
  AUG-23-2013 01:35:00      5.013     0.869     2.000    31.460
  AUG-23-2013 01:36:00      5.096     0.962     2.000    31.460
  AUG-23-2013 01:37:00      5.172     1.033     2.000    31.460
  AUG-23-2013 01:38:00      5.234     1.102     2.000    31.460
  AUG-23-2013 01:39:00      5.294     1.158     2.000    31.460
  AUG-23-2013 01:40:00      5.359     1.219     2.000    31.460
  AUG-23-2013 01:41:00      5.425     1.293     2.000    31.460
  AUG-23-2013 01:42:00      5.492     1.354     2.000    31.460
  AUG-23-2013 01:43:00      5.558     1.416     2.000    31.460
  AUG-23-2013 01:44:00      5.622     1.488     2.000    31.460
  AUG-23-2013 01:45:00      5.680     1.542     2.000    31.460
  AUG-23-2013 01:46:00      5.733     1.591     2.000    31.460
  AUG-23-2013 01:47:00      5.788     1.653     2.000    31.460
  AUG-23-2013 01:48:00      5.850     1.711     2.000    31.460
  AUG-23-2013 01:49:00      5.909     1.776     2.000    31.460
  AUG-23-2013 01:50:00      5.961     1.825     2.000    31.460
  AUG-23-2013 01:51:00      6.012     1.872     2.000    31.460
  AUG-23-2013 01:52:00      6.062     1.928     2.000    31.460
  AUG-23-2013 01:53:00      6.110     1.973     2.000    31.460
  AUG-23-2013 01:54:00      6.153     2.013     2.000    31.460
  AUG-23-2013 01:55:00      6.190     2.054     2.000    31.460
  AUG-23-2013 01:56:00      6.218     2.080     2.000    31.460
  AUG-23-2013 01:57:00      6.243     2.104     2.000    31.460
  AUG-23-2013 01:58:00      6.264     2.127     2.000    31.460
  AUG-23-2013 01:59:00      6.278     2.140     2.000    31.460
  AUG-23-2013 02:00:00      6.281     2.143     2.000    31.460
  AUG-23-2013 02:01:00      6.275     2.137     2.000    31.460
  AUG-23-2013 02:02:00      6.257     2.121     2.000    31.460
  AUG-23-2013 02:03:00      6.236     2.097     2.000    31.460
  AUG-23-2013 02:04:00      6.210     2.073     2.000    31.460
  AUG-23-2013 02:05:00      6.179     2.044     2.000    31.460
  AUG-23-2013 02:06:00      6.137     1.998     2.000    31.460
  AUG-23-2013 02:07:00      6.092     1.956     2.000    31.460
  AUG-23-2013 02:08:00      6.043     1.910     2.000    31.460
  AUG-23-2013 02:09:00      5.992     1.853     2.000    31.460
  AUG-23-2013 02:10:00      5.940     1.804     2.000    31.460
  AUG-23-2013 02:11:00      5.885     1.743     2.000    31.460
  AUG-23-2013 02:12:00      5.823     1.685     2.000    31.460
  AUG-23-2013 02:13:00      5.764     1.630     2.000    31.460
  AUG-23-2013 02:14:00      5.712     1.571     2.000    31.460
  AUG-23-2013 02:15:00      5.657     1.520     2.000    31.460
  AUG-23-2013 02:16:00      5.594     1.462     2.000    31.460
  AUG-23-2013 02:17:00      5.530     1.390     2.000    31.460
  AUG-23-2013 02:18:00      5.463     1.328     2.000    31.460
  AUG-23-2013 02:19:00      5.396     1.253     2.000    31.460
  AUG-23-2013 02:20:00      5.331     1.192     2.000    31.460
  AUG-23-2013 02:21:00      5.268     1.133     2.000    31.460
  AUG-23-2013 02:22:00      5.207     1.065     2.000    31.460
  AUG-23-2013 02:23:00      5.138     1.000     2.000    31.460
  AUG-23-2013 02:24:00      5.056     0.924     2.000    31.460
  AUG-23-2013 02:25:00      4.975     0.833     2.000    31.460
  AUG-23-2013 02:26:00      4.898     0.762     2.000    31.460
  AUG-23-2013 02:27:00      4.820     0.689     2.000    31.460
  AUG-23-2013 02:28:00      4.738     0.598     2.000    31.460
  AUG-23-2013 02:29:00      4.655     0.520     2.000    31.460
  AUG-23-2013 02:30:00      4.571     0.427     2.000    31.460
  AUG-23-2013 02:31:00      4.487     0.348     2.000    31.460
  AUG-23-2013 02:32:00      4.403     0.270     2.000    31.460
  AUG-23-2013 02:33:00      4.318     0.175     2.000    31.460
  AUG-23-2013 02:34:00      4.234     0.096     2.000    31.460
  AUG-23-2013 02:35:00      4.143     0.012     2.000    31.460
  AUG-23-2013 02:36:00      4.036     0.000     1.937    31.397
  AUG-23-2013 02:37:00      3.942     0.000     1.898    31.358
  AUG-23-2013 02:38:00      3.857     0.000     1.860    31.320
  AUG-23-2013 02:39:00      3.769     0.000     1.808    31.268
  AUG-23-2013 02:40:00      3.690     0.000     1.784    31.244
  AUG-23-2013 02:41:00      3.599     0.000     1.728    31.188
  AUG-23-2013 02:42:00      3.522     0.000     1.703    31.163
  AUG-23-2013 02:43:00      3.435     0.000     1.657    31.117
  AUG-23-2013 02:44:00      3.361     0.000     1.628    31.088
  AUG-23-2013 02:45:00      3.288     0.000     1.596    31.056
  AUG-23-2013 02:46:00      3.225     0.000     1.568    31.028
  AUG-23-2013 02:47:00      3.162     0.000     1.543    31.003
  AUG-23-2013 02:48:00      3.076     0.000     1.506    30.966
  AUG-23-2013 02:49:00      3.003     0.000     1.479    30.939
  AUG-23-2013 02:50:00      2.941     0.000     1.453    30.913
  AUG-23-2013 02:51:00      2.879     0.000     1.430    30.890
  AUG-23-2013 02:52:00      2.824     0.000     1.409    30.869
  AUG-23-2013 02:53:00      2.765     0.000     1.396    30.856
  AUG-23-2013 02:54:00      2.709     0.000     1.383    30.843
  AUG-23-2013 02:55:00      2.656     0.000     1.363    30.823
  AUG-23-2013 02:56:00      2.607     0.000     1.342    30.802
  AUG-23-2013 02:57:00      2.560     0.000     1.322    30.782
  AUG-23-2013 02:58:00      2.517     0.000     1.304    30.764
  AUG-23-2013 02:59:00      2.472     0.000     1.288    30.748
  AUG-23-2013 03:00:00      2.422     0.000     1.271    30.731
  AUG-23-2013 03:01:00      2.376     0.000     1.254    30.714
  AUG-23-2013 03:02:00      2.347     0.000     1.239    30.699
  AUG-23-2013 03:03:00      2.319     0.000     1.227    30.687
  AUG-23-2013 03:04:00      2.289     0.000     1.216    30.676
  AUG-23-2013 03:05:00      2.258     0.000     1.205    30.665
  AUG-23-2013 03:06:00      2.228     0.000     1.194    30.654
  AUG-23-2013 03:07:00      2.200     0.000     1.184    30.644
  AUG-23-2013 03:08:00      2.173     0.000     1.174    30.634
  AUG-23-2013 03:09:00      2.148     0.000     1.165    30.625
  AUG-23-2013 03:10:00      2.123     0.000     1.157    30.617
  AUG-23-2013 03:11:00      2.099     0.000     1.148    30.608
  AUG-23-2013 03:12:00      2.077     0.000     1.140    30.600
  AUG-23-2013 03:13:00      2.057     0.000     1.133    30.593
  AUG-23-2013 03:14:00      2.039     0.000     1.126    30.586
  AUG-23-2013 03:15:00      2.022     0.000     1.120    30.580
  AUG-23-2013 03:16:00      2.005     0.000     1.114    30.574
  AUG-23-2013 03:17:00      1.988     0.000     1.109    30.569
  AUG-23-2013 03:18:00      1.971     0.000     1.103    30.563
  AUG-23-2013 03:19:00      1.955     0.000     1.098    30.558
  AUG-23-2013 03:20:00      1.938     0.000     1.093    30.553
  AUG-23-2013 03:21:00      1.921     0.000     1.087    30.547
  AUG-23-2013 03:22:00      1.904     0.000     1.082    30.542
  AUG-23-2013 03:23:00      1.886     0.000     1.077    30.537
  AUG-23-2013 03:24:00      1.866     0.000     1.071    30.531
  AUG-23-2013 03:25:00      1.848     0.000     1.065    30.525
  AUG-23-2013 03:26:00      1.837     0.000     1.060    30.520
  AUG-23-2013 03:27:00      1.827     0.000     1.056    30.516
  AUG-23-2013 03:28:00      1.813     0.000     1.052    30.512
  AUG-23-2013 03:29:00      1.799     0.000     1.047    30.507
  AUG-23-2013 03:30:00      1.786     0.000     1.043    30.503
  AUG-23-2013 03:31:00      1.775     0.000     1.039    30.499
  AUG-23-2013 03:32:00      1.765     0.000     1.036    30.496
  AUG-23-2013 03:33:00      1.757     0.000     1.032    30.492
  AUG-23-2013 03:34:00      1.748     0.000     1.029    30.489
  AUG-23-2013 03:35:00      1.739     0.000     1.026    30.486
  AUG-23-2013 03:36:00      1.729     0.000     1.024    30.484
  AUG-23-2013 03:37:00      1.721     0.000     1.021    30.481
  AUG-23-2013 03:38:00      1.719     0.000     1.018    30.478
  AUG-23-2013 03:39:00      1.717     0.000     1.017    30.477
  AUG-23-2013 03:40:00      1.711     0.000     1.015    30.475
  AUG-23-2013 03:41:00      1.705     0.000     1.014    30.474
  AUG-23-2013 03:42:00      1.697     0.000     1.012    30.472
  AUG-23-2013 03:43:00      1.689     0.000     1.010    30.470
  AUG-23-2013 03:44:00      1.681     0.000     1.008    30.468
  AUG-23-2013 03:45:00      1.672     0.000     1.005    30.465
  AUG-23-2013 03:46:00      1.664     0.000     1.003    30.463
  AUG-23-2013 03:47:00      1.655     0.000     1.000    30.460
  AUG-23-2013 03:48:00      1.645     0.000     0.997    30.457
  AUG-23-2013 03:49:00      1.635     0.000     0.994    30.454
  AUG-23-2013 03:50:00      1.626     0.000     0.991    30.451
  AUG-23-2013 03:51:00      1.617     0.000     0.988    30.448
  AUG-23-2013 03:52:00      1.609     0.000     0.986    30.446
  AUG-23-2013 03:53:00      1.602     0.000     0.983    30.443
  AUG-23-2013 03:54:00      1.600     0.000     0.981    30.441
  AUG-23-2013 03:55:00      1.600     0.000     0.980    30.440
  AUG-23-2013 03:56:00      1.600     0.000     0.979    30.439
  AUG-23-2013 03:57:00      1.600     0.000     0.979    30.439
  AUG-23-2013 03:58:00      1.600     0.000     0.979    30.439
  AUG-23-2013 03:59:00      1.600     0.000     0.979    30.439
  AUG-23-2013 04:00:00      1.600     0.000     0.978    30.438
  AUG-23-2013 04:01:00      1.600     0.000     0.978    30.438
  AUG-23-2013 04:02:00      1.600     0.000     0.978    30.438
  AUG-23-2013 04:03:00      1.600     0.000     0.978    30.438
  AUG-23-2013 04:04:00      1.600     0.000     0.978    30.438
  AUG-23-2013 04:05:00      1.600     0.000     0.978    30.438
  AUG-23-2013 04:06:00      1.600     0.000     0.978    30.438
  AUG-23-2013 04:07:00      1.600     0.000     0.978    30.438
  AUG-23-2013 04:08:00      1.600     0.000     0.978    30.438
  AUG-23-2013 04:09:00      1.600     0.000     0.978    30.438
  AUG-23-2013 04:10:00      1.600     0.000     0.978    30.438
  AUG-23-2013 04:11:00      1.600     0.000     0.978    30.438
  AUG-23-2013 04:12:00      1.600     0.000     0.978    30.438
  AUG-23-2013 04:13:00      1.600     0.000     0.978    30.438
  AUG-23-2013 04:14:00      1.600     0.000     0.978    30.438
  AUG-23-2013 04:15:00      1.600     0.000     0.978    30.438
  AUG-23-2013 04:16:00      1.600     0.000     0.978    30.438
  AUG-23-2013 04:17:00      1.600     0.000     0.978    30.438
  AUG-23-2013 04:18:00      1.600     0.000     0.978    30.438
  AUG-23-2013 04:19:00      1.600     0.000     0.978    30.438
  AUG-23-2013 04:20:00      1.600     0.000     0.978    30.438
  AUG-23-2013 04:21:00      1.600     0.000     0.978    30.438
  AUG-23-2013 04:22:00      1.600     0.000     0.978    30.438
  AUG-23-2013 04:23:00      1.600     0.000     0.978    30.438
  AUG-23-2013 04:24:00      1.600     0.000     0.978    30.438
  AUG-23-2013 04:25:00      1.600     0.000     0.978    30.438
  AUG-23-2013 04:26:00      1.600     0.000     0.978    30.438
  AUG-23-2013 04:27:00      1.600     0.000     0.978    30.438
  AUG-23-2013 04:28:00      1.600     0.000     0.978    30.438
  AUG-23-2013 04:29:00      1.600     0.000     0.978    30.438
  AUG-23-2013 04:30:00      1.600     0.000     0.978    30.438
  AUG-23-2013 04:31:00      1.600     0.000     0.978    30.438
  AUG-23-2013 04:32:00      1.600     0.000     0.978    30.438
  AUG-23-2013 04:33:00      1.600     0.000     0.978    30.438
  AUG-23-2013 04:34:00      1.600     0.000     0.978    30.438
  AUG-23-2013 04:35:00      1.600     0.000     0.978    30.438
  AUG-23-2013 04:36:00      1.600     0.000     0.978    30.438
  AUG-23-2013 04:37:00      1.600     0.000     0.978    30.438
  AUG-23-2013 04:38:00      1.600     0.000     0.978    30.438
  AUG-23-2013 04:39:00      1.600     0.000     0.978    30.438
  AUG-23-2013 04:40:00      1.600     0.000     0.978    30.438
  AUG-23-2013 04:41:00      1.600     0.000     0.978    30.438
  AUG-23-2013 04:42:00      1.600     0.000     0.978    30.438
  AUG-23-2013 04:43:00      1.600     0.000     0.978    30.438
  AUG-23-2013 04:44:00      1.600     0.000     0.978    30.438
  AUG-23-2013 04:45:00      1.600     0.000     0.978    30.438
  AUG-23-2013 04:46:00      1.600     0.000     0.978    30.438
  AUG-23-2013 04:47:00      1.600     0.000     0.978    30.438
  AUG-23-2013 04:48:00      1.600     0.000     0.978    30.438
  AUG-23-2013 04:49:00      1.600     0.000     0.978    30.438
  AUG-23-2013 04:50:00      1.600     0.000     0.978    30.438
  AUG-23-2013 04:51:00      1.600     0.000     0.978    30.438
  AUG-23-2013 04:52:00      1.600     0.000     0.978    30.438
  AUG-23-2013 04:53:00      1.600     0.000     0.978    30.438
  AUG-23-2013 04:54:00      1.600     0.000     0.978    30.438
  AUG-23-2013 04:55:00      1.600     0.000     0.978    30.438
  AUG-23-2013 04:56:00      1.600     0.000     0.978    30.438
  AUG-23-2013 04:57:00      1.600     0.000     0.978    30.438
  AUG-23-2013 04:58:00      1.600     0.000     0.978    30.438
  AUG-23-2013 04:59:00      1.600     0.000     0.978    30.438
  AUG-23-2013 05:00:00      1.600     0.000     0.978    30.438
  
  
  <<< Node 3 >>>
  ----------------------------------------------------------------
                           Inflow  Flooding     Depth      Head
  Date        Time            CMS       CMS    meters    meters
  ----------------------------------------------------------------
  AUG-23-2013 00:01:00      1.262     0.000     0.519    29.979
  AUG-23-2013 00:02:00      1.912     0.000     0.613    30.073
  AUG-23-2013 00:03:00      1.792     0.000     0.628    30.088
  AUG-23-2013 00:04:00      1.705     0.000     0.597    30.057
  AUG-23-2013 00:05:00      1.664     0.000     0.588    30.048
  AUG-23-2013 00:06:00      1.634     0.000     0.581    30.041
  AUG-23-2013 00:07:00      1.618     0.000     0.578    30.038
  AUG-23-2013 00:08:00      1.611     0.000     0.576    30.036
  AUG-23-2013 00:09:00      1.610     0.000     0.576    30.036
  AUG-23-2013 00:10:00      1.613     0.000     0.577    30.037
  AUG-23-2013 00:11:00      1.619     0.000     0.578    30.038
  AUG-23-2013 00:12:00      1.626     0.000     0.579    30.039
  AUG-23-2013 00:13:00      1.635     0.000     0.581    30.041
  AUG-23-2013 00:14:00      1.644     0.000     0.582    30.042
  AUG-23-2013 00:15:00      1.653     0.000     0.584    30.044
  AUG-23-2013 00:16:00      1.662     0.000     0.586    30.046
  AUG-23-2013 00:17:00      1.671     0.000     0.588    30.048
  AUG-23-2013 00:18:00      1.680     0.000     0.589    30.049
  AUG-23-2013 00:19:00      1.688     0.000     0.591    30.051
  AUG-23-2013 00:20:00      1.696     0.000     0.593    30.053
  AUG-23-2013 00:21:00      1.704     0.000     0.594    30.054
  AUG-23-2013 00:22:00      1.710     0.000     0.595    30.055
  AUG-23-2013 00:23:00      1.714     0.000     0.596    30.056
  AUG-23-2013 00:24:00      1.718     0.000     0.597    30.057
  AUG-23-2013 00:25:00      1.724     0.000     0.598    30.058
  AUG-23-2013 00:26:00      1.731     0.000     0.599    30.059
  AUG-23-2013 00:27:00      1.739     0.000     0.601    30.061
  AUG-23-2013 00:28:00      1.748     0.000     0.602    30.062
  AUG-23-2013 00:29:00      1.756     0.000     0.604    30.064
  AUG-23-2013 00:30:00      1.766     0.000     0.606    30.066
  AUG-23-2013 00:31:00      1.776     0.000     0.608    30.068
  AUG-23-2013 00:32:00      1.788     0.000     0.610    30.070
  AUG-23-2013 00:33:00      1.801     0.000     0.612    30.072
  AUG-23-2013 00:34:00      1.813     0.000     0.615    30.075
  AUG-23-2013 00:35:00      1.825     0.000     0.617    30.077
  AUG-23-2013 00:36:00      1.837     0.000     0.619    30.079
  AUG-23-2013 00:37:00      1.853     0.000     0.622    30.082
  AUG-23-2013 00:38:00      1.870     0.000     0.625    30.085
  AUG-23-2013 00:39:00      1.887     0.000     0.628    30.088
  AUG-23-2013 00:40:00      1.904     0.000     0.632    30.092
  AUG-23-2013 00:41:00      1.922     0.000     0.635    30.095
  AUG-23-2013 00:42:00      1.939     0.000     0.638    30.098
  AUG-23-2013 00:43:00      1.956     0.000     0.641    30.101
  AUG-23-2013 00:44:00      1.973     0.000     0.644    30.104
  AUG-23-2013 00:45:00      1.990     0.000     0.647    30.107
  AUG-23-2013 00:46:00      2.006     0.000     0.651    30.111
  AUG-23-2013 00:47:00      2.024     0.000     0.654    30.114
  AUG-23-2013 00:48:00      2.042     0.000     0.657    30.117
  AUG-23-2013 00:49:00      2.061     0.000     0.660    30.120
  AUG-23-2013 00:50:00      2.082     0.000     0.664    30.124
  AUG-23-2013 00:51:00      2.104     0.000     0.668    30.128
  AUG-23-2013 00:52:00      2.128     0.000     0.672    30.132
  AUG-23-2013 00:53:00      2.153     0.000     0.677    30.137
  AUG-23-2013 00:54:00      2.180     0.000     0.682    30.142
  AUG-23-2013 00:55:00      2.207     0.000     0.687    30.147
  AUG-23-2013 00:56:00      2.236     0.000     0.692    30.152
  AUG-23-2013 00:57:00      2.267     0.000     0.697    30.157
  AUG-23-2013 00:58:00      2.297     0.000     0.703    30.163
  AUG-23-2013 00:59:00      2.325     0.000     0.708    30.168
  AUG-23-2013 01:00:00      2.357     0.000     0.713    30.173
  AUG-23-2013 01:01:00      2.398     0.000     0.720    30.180
  AUG-23-2013 01:02:00      2.442     0.000     0.728    30.188
  AUG-23-2013 01:03:00      2.486     0.000     0.736    30.196
  AUG-23-2013 01:04:00      2.532     0.000     0.744    30.204
  AUG-23-2013 01:05:00      2.580     0.000     0.752    30.212
  AUG-23-2013 01:06:00      2.631     0.000     0.761    30.221
  AUG-23-2013 01:07:00      2.684     0.000     0.770    30.230
  AUG-23-2013 01:08:00      2.739     0.000     0.780    30.240
  AUG-23-2013 01:09:00      2.788     0.000     0.789    30.249
  AUG-23-2013 01:10:00      2.963     0.000     0.813    30.273
  AUG-23-2013 01:11:00      3.010     0.000     0.829    30.289
  AUG-23-2013 01:12:00      3.097     0.000     0.842    30.302
  AUG-23-2013 01:13:00      3.177     0.000     0.857    30.317
  AUG-23-2013 01:14:00      3.240     0.000     0.869    30.329
  AUG-23-2013 01:15:00      3.308     0.000     0.881    30.341
  AUG-23-2013 01:16:00      3.385     0.000     0.894    30.354
  AUG-23-2013 01:17:00      3.464     0.000     0.908    30.368
  AUG-23-2013 01:18:00      3.551     0.000     0.924    30.384
  AUG-23-2013 01:19:00      3.632     0.000     0.940    30.400
  AUG-23-2013 01:20:00      3.722     0.000     0.956    30.416
  AUG-23-2013 01:21:00      3.803     0.000     0.972    30.432
  AUG-23-2013 01:22:00      3.890     0.000     0.989    30.449
  AUG-23-2013 01:23:00      3.982     0.000     1.007    30.467
  AUG-23-2013 01:24:00      4.082     0.000     1.028    30.488
  AUG-23-2013 01:25:00      4.139     0.000     1.044    30.504
  AUG-23-2013 01:26:00      4.138     0.000     1.046    30.506
  AUG-23-2013 01:27:00      4.137     0.000     1.046    30.506
  AUG-23-2013 01:28:00      4.137     0.000     1.046    30.506
  AUG-23-2013 01:29:00      4.137     0.000     1.046    30.506
  AUG-23-2013 01:30:00      4.137     0.000     1.046    30.506
  AUG-23-2013 01:31:00      4.137     0.000     1.046    30.506
  AUG-23-2013 01:32:00      4.137     0.000     1.046    30.506
  AUG-23-2013 01:33:00      4.137     0.000     1.046    30.506
  AUG-23-2013 01:34:00      4.137     0.000     1.046    30.506
  AUG-23-2013 01:35:00      4.137     0.000     1.046    30.506
  AUG-23-2013 01:36:00      4.137     0.000     1.046    30.506
  AUG-23-2013 01:37:00      4.137     0.000     1.046    30.506
  AUG-23-2013 01:38:00      4.137     0.000     1.046    30.506
  AUG-23-2013 01:39:00      4.137     0.000     1.046    30.506
  AUG-23-2013 01:40:00      4.137     0.000     1.046    30.506
  AUG-23-2013 01:41:00      4.137     0.000     1.046    30.506
  AUG-23-2013 01:42:00      4.137     0.000     1.046    30.506
  AUG-23-2013 01:43:00      4.137     0.000     1.046    30.506
  AUG-23-2013 01:44:00      4.137     0.000     1.046    30.506
  AUG-23-2013 01:45:00      4.137     0.000     1.046    30.506
  AUG-23-2013 01:46:00      4.137     0.000     1.046    30.506
  AUG-23-2013 01:47:00      4.137     0.000     1.046    30.506
  AUG-23-2013 01:48:00      4.137     0.000     1.046    30.506
  AUG-23-2013 01:49:00      4.137     0.000     1.046    30.506
  AUG-23-2013 01:50:00      4.137     0.000     1.046    30.506
  AUG-23-2013 01:51:00      4.137     0.000     1.046    30.506
  AUG-23-2013 01:52:00      4.137     0.000     1.046    30.506
  AUG-23-2013 01:53:00      4.137     0.000     1.046    30.506
  AUG-23-2013 01:54:00      4.137     0.000     1.046    30.506
  AUG-23-2013 01:55:00      4.137     0.000     1.046    30.506
  AUG-23-2013 01:56:00      4.137     0.000     1.046    30.506
  AUG-23-2013 01:57:00      4.137     0.000     1.046    30.506
  AUG-23-2013 01:58:00      4.137     0.000     1.046    30.506
  AUG-23-2013 01:59:00      4.137     0.000     1.046    30.506
  AUG-23-2013 02:00:00      4.137     0.000     1.046    30.506
  AUG-23-2013 02:01:00      4.137     0.000     1.046    30.506
  AUG-23-2013 02:02:00      4.137     0.000     1.046    30.506
  AUG-23-2013 02:03:00      4.137     0.000     1.046    30.506
  AUG-23-2013 02:04:00      4.137     0.000     1.046    30.506
  AUG-23-2013 02:05:00      4.137     0.000     1.046    30.506
  AUG-23-2013 02:06:00      4.137     0.000     1.046    30.506
  AUG-23-2013 02:07:00      4.137     0.000     1.046    30.506
  AUG-23-2013 02:08:00      4.137     0.000     1.046    30.506
  AUG-23-2013 02:09:00      4.137     0.000     1.046    30.506
  AUG-23-2013 02:10:00      4.137     0.000     1.046    30.506
  AUG-23-2013 02:11:00      4.137     0.000     1.046    30.506
  AUG-23-2013 02:12:00      4.137     0.000     1.046    30.506
  AUG-23-2013 02:13:00      4.137     0.000     1.046    30.506
  AUG-23-2013 02:14:00      4.137     0.000     1.046    30.506
  AUG-23-2013 02:15:00      4.137     0.000     1.046    30.506
  AUG-23-2013 02:16:00      4.137     0.000     1.046    30.506
  AUG-23-2013 02:17:00      4.137     0.000     1.046    30.506
  AUG-23-2013 02:18:00      4.137     0.000     1.046    30.506
  AUG-23-2013 02:19:00      4.137     0.000     1.046    30.506
  AUG-23-2013 02:20:00      4.137     0.000     1.046    30.506
  AUG-23-2013 02:21:00      4.137     0.000     1.046    30.506
  AUG-23-2013 02:22:00      4.137     0.000     1.046    30.506
  AUG-23-2013 02:23:00      4.137     0.000     1.046    30.506
  AUG-23-2013 02:24:00      4.137     0.000     1.046    30.506
  AUG-23-2013 02:25:00      4.137     0.000     1.046    30.506
  AUG-23-2013 02:26:00      4.137     0.000     1.046    30.506
  AUG-23-2013 02:27:00      4.137     0.000     1.046    30.506
  AUG-23-2013 02:28:00      4.137     0.000     1.046    30.506
  AUG-23-2013 02:29:00      4.137     0.000     1.046    30.506
  AUG-23-2013 02:30:00      4.137     0.000     1.046    30.506
  AUG-23-2013 02:31:00      4.137     0.000     1.046    30.506
  AUG-23-2013 02:32:00      4.137     0.000     1.046    30.506
  AUG-23-2013 02:33:00      4.137     0.000     1.046    30.506
  AUG-23-2013 02:34:00      4.137     0.000     1.046    30.506
  AUG-23-2013 02:35:00      4.137     0.000     1.046    30.506
  AUG-23-2013 02:36:00      4.036     0.000     1.032    30.492
  AUG-23-2013 02:37:00      3.942     0.000     1.011    30.471
  AUG-23-2013 02:38:00      3.856     0.000     0.993    30.453
  AUG-23-2013 02:39:00      3.769     0.000     0.976    30.436
  AUG-23-2013 02:40:00      3.690     0.000     0.959    30.419
  AUG-23-2013 02:41:00      3.600     0.000     0.943    30.403
  AUG-23-2013 02:42:00      3.521     0.000     0.927    30.387
  AUG-23-2013 02:43:00      3.437     0.000     0.913    30.373
  AUG-23-2013 02:44:00      3.362     0.000     0.898    30.358
  AUG-23-2013 02:45:00      3.292     0.000     0.885    30.345
  AUG-23-2013 02:46:00      3.230     0.000     0.874    30.334
  AUG-23-2013 02:47:00      3.164     0.000     0.862    30.322
  AUG-23-2013 02:48:00      3.084     0.000     0.848    30.308
  AUG-23-2013 02:49:00      3.016     0.000     0.835    30.295
  AUG-23-2013 02:50:00      2.951     0.000     0.823    30.283
  AUG-23-2013 02:51:00      2.898     0.000     0.813    30.273
  AUG-23-2013 02:52:00      2.844     0.000     0.804    30.264
  AUG-23-2013 02:53:00      2.804     0.000     0.795    30.255
  AUG-23-2013 02:54:00      2.782     0.000     0.791    30.251
  AUG-23-2013 02:55:00      2.747     0.000     0.786    30.246
  AUG-23-2013 02:56:00      2.697     0.000     0.777    30.237
  AUG-23-2013 02:57:00      2.646     0.000     0.768    30.228
  AUG-23-2013 02:58:00      2.599     0.000     0.760    30.220
  AUG-23-2013 02:59:00      2.554     0.000     0.752    30.212
  AUG-23-2013 03:00:00      2.508     0.000     0.744    30.204
  AUG-23-2013 03:01:00      2.461     0.000     0.735    30.195
  AUG-23-2013 03:02:00      2.418     0.000     0.727    30.187
  AUG-23-2013 03:03:00      2.382     0.000     0.720    30.180
  AUG-23-2013 03:04:00      2.349     0.000     0.714    30.174
  AUG-23-2013 03:05:00      2.317     0.000     0.709    30.169
  AUG-23-2013 03:06:00      2.286     0.000     0.703    30.163
  AUG-23-2013 03:07:00      2.255     0.000     0.697    30.157
  AUG-23-2013 03:08:00      2.226     0.000     0.692    30.152
  AUG-23-2013 03:09:00      2.198     0.000     0.687    30.147
  AUG-23-2013 03:10:00      2.172     0.000     0.682    30.142
  AUG-23-2013 03:11:00      2.146     0.000     0.677    30.137
  AUG-23-2013 03:12:00      2.121     0.000     0.673    30.133
  AUG-23-2013 03:13:00      2.098     0.000     0.668    30.128
  AUG-23-2013 03:14:00      2.077     0.000     0.665    30.125
  AUG-23-2013 03:15:00      2.057     0.000     0.661    30.121
  AUG-23-2013 03:16:00      2.039     0.000     0.657    30.117
  AUG-23-2013 03:17:00      2.021     0.000     0.654    30.114
  AUG-23-2013 03:18:00      2.004     0.000     0.651    30.111
  AUG-23-2013 03:19:00      1.987     0.000     0.648    30.108
  AUG-23-2013 03:20:00      1.970     0.000     0.645    30.105
  AUG-23-2013 03:21:00      1.954     0.000     0.642    30.102
  AUG-23-2013 03:22:00      1.937     0.000     0.639    30.099
  AUG-23-2013 03:23:00      1.920     0.000     0.636    30.096
  AUG-23-2013 03:24:00      1.902     0.000     0.632    30.092
  AUG-23-2013 03:25:00      1.884     0.000     0.629    30.089
  AUG-23-2013 03:26:00      1.866     0.000     0.626    30.086
  AUG-23-2013 03:27:00      1.852     0.000     0.623    30.083
  AUG-23-2013 03:28:00      1.839     0.000     0.620    30.080
  AUG-23-2013 03:29:00      1.825     0.000     0.618    30.078
  AUG-23-2013 03:30:00      1.812     0.000     0.615    30.075
  AUG-23-2013 03:31:00      1.799     0.000     0.613    30.073
  AUG-23-2013 03:32:00      1.787     0.000     0.611    30.071
  AUG-23-2013 03:33:00      1.776     0.000     0.608    30.068
  AUG-23-2013 03:34:00      1.766     0.000     0.607    30.067
  AUG-23-2013 03:35:00      1.757     0.000     0.605    30.065
  AUG-23-2013 03:36:00      1.748     0.000     0.603    30.063
  AUG-23-2013 03:37:00      1.738     0.000     0.601    30.061
  AUG-23-2013 03:38:00      1.730     0.000     0.600    30.060
  AUG-23-2013 03:39:00      1.725     0.000     0.598    30.058
  AUG-23-2013 03:40:00      1.720     0.000     0.598    30.058
  AUG-23-2013 03:41:00      1.716     0.000     0.597    30.057
  AUG-23-2013 03:42:00      1.710     0.000     0.596    30.056
  AUG-23-2013 03:43:00      1.703     0.000     0.594    30.054
  AUG-23-2013 03:44:00      1.696     0.000     0.593    30.053
  AUG-23-2013 03:45:00      1.688     0.000     0.592    30.052
  AUG-23-2013 03:46:00      1.680     0.000     0.590    30.050
  AUG-23-2013 03:47:00      1.672     0.000     0.588    30.048
  AUG-23-2013 03:48:00      1.663     0.000     0.587    30.047
  AUG-23-2013 03:49:00      1.654     0.000     0.585    30.045
  AUG-23-2013 03:50:00      1.644     0.000     0.583    30.043
  AUG-23-2013 03:51:00      1.635     0.000     0.581    30.041
  AUG-23-2013 03:52:00      1.626     0.000     0.580    30.040
  AUG-23-2013 03:53:00      1.617     0.000     0.578    30.038
  AUG-23-2013 03:54:00      1.610     0.000     0.576    30.036
  AUG-23-2013 03:55:00      1.606     0.000     0.575    30.035
  AUG-23-2013 03:56:00      1.603     0.000     0.575    30.035
  AUG-23-2013 03:57:00      1.602     0.000     0.575    30.035
  AUG-23-2013 03:58:00      1.601     0.000     0.574    30.034
  AUG-23-2013 03:59:00      1.600     0.000     0.574    30.034
  AUG-23-2013 04:00:00      1.600     0.000     0.574    30.034
  AUG-23-2013 04:01:00      1.600     0.000     0.574    30.034
  AUG-23-2013 04:02:00      1.600     0.000     0.574    30.034
  AUG-23-2013 04:03:00      1.600     0.000     0.574    30.034
  AUG-23-2013 04:04:00      1.600     0.000     0.574    30.034
  AUG-23-2013 04:05:00      1.600     0.000     0.574    30.034
  AUG-23-2013 04:06:00      1.600     0.000     0.574    30.034
  AUG-23-2013 04:07:00      1.600     0.000     0.574    30.034
  AUG-23-2013 04:08:00      1.600     0.000     0.574    30.034
  AUG-23-2013 04:09:00      1.600     0.000     0.574    30.034
  AUG-23-2013 04:10:00      1.600     0.000     0.574    30.034
  AUG-23-2013 04:11:00      1.600     0.000     0.574    30.034
  AUG-23-2013 04:12:00      1.600     0.000     0.574    30.034
  AUG-23-2013 04:13:00      1.600     0.000     0.574    30.034
  AUG-23-2013 04:14:00      1.600     0.000     0.574    30.034
  AUG-23-2013 04:15:00      1.600     0.000     0.574    30.034
  AUG-23-2013 04:16:00      1.600     0.000     0.574    30.034
  AUG-23-2013 04:17:00      1.600     0.000     0.574    30.034
  AUG-23-2013 04:18:00      1.600     0.000     0.574    30.034
  AUG-23-2013 04:19:00      1.600     0.000     0.574    30.034
  AUG-23-2013 04:20:00      1.600     0.000     0.574    30.034
  AUG-23-2013 04:21:00      1.600     0.000     0.574    30.034
  AUG-23-2013 04:22:00      1.600     0.000     0.574    30.034
  AUG-23-2013 04:23:00      1.600     0.000     0.574    30.034
  AUG-23-2013 04:24:00      1.600     0.000     0.574    30.034
  AUG-23-2013 04:25:00      1.600     0.000     0.574    30.034
  AUG-23-2013 04:26:00      1.600     0.000     0.574    30.034
  AUG-23-2013 04:27:00      1.600     0.000     0.574    30.034
  AUG-23-2013 04:28:00      1.600     0.000     0.574    30.034
  AUG-23-2013 04:29:00      1.600     0.000     0.574    30.034
  AUG-23-2013 04:30:00      1.600     0.000     0.574    30.034
  AUG-23-2013 04:31:00      1.600     0.000     0.574    30.034
  AUG-23-2013 04:32:00      1.600     0.000     0.574    30.034
  AUG-23-2013 04:33:00      1.600     0.000     0.574    30.034
  AUG-23-2013 04:34:00      1.600     0.000     0.574    30.034
  AUG-23-2013 04:35:00      1.600     0.000     0.574    30.034
  AUG-23-2013 04:36:00      1.600     0.000     0.574    30.034
  AUG-23-2013 04:37:00      1.600     0.000     0.574    30.034
  AUG-23-2013 04:38:00      1.600     0.000     0.574    30.034
  AUG-23-2013 04:39:00      1.600     0.000     0.574    30.034
  AUG-23-2013 04:40:00      1.600     0.000     0.574    30.034
  AUG-23-2013 04:41:00      1.600     0.000     0.574    30.034
  AUG-23-2013 04:42:00      1.600     0.000     0.574    30.034
  AUG-23-2013 04:43:00      1.600     0.000     0.574    30.034
  AUG-23-2013 04:44:00      1.600     0.000     0.574    30.034
  AUG-23-2013 04:45:00      1.600     0.000     0.574    30.034
  AUG-23-2013 04:46:00      1.600     0.000     0.574    30.034
  AUG-23-2013 04:47:00      1.600     0.000     0.574    30.034
  AUG-23-2013 04:48:00      1.600     0.000     0.574    30.034
  AUG-23-2013 04:49:00      1.600     0.000     0.574    30.034
  AUG-23-2013 04:50:00      1.600     0.000     0.574    30.034
  AUG-23-2013 04:51:00      1.600     0.000     0.574    30.034
  AUG-23-2013 04:52:00      1.600     0.000     0.574    30.034
  AUG-23-2013 04:53:00      1.600     0.000     0.574    30.034
  AUG-23-2013 04:54:00      1.600     0.000     0.574    30.034
  AUG-23-2013 04:55:00      1.600     0.000     0.574    30.034
  AUG-23-2013 04:56:00      1.600     0.000     0.574    30.034
  AUG-23-2013 04:57:00      1.600     0.000     0.574    30.034
  AUG-23-2013 04:58:00      1.600     0.000     0.574    30.034
  AUG-23-2013 04:59:00      1.600     0.000     0.574    30.034
  AUG-23-2013 05:00:00      1.600     0.000     0.574    30.034
  
  
  <<< Node 4 >>>
  ----------------------------------------------------------------
                           Inflow  Flooding     Depth      Head
  Date        Time            CMS       CMS    meters    meters
  ----------------------------------------------------------------
  AUG-23-2013 00:01:00      1.340     0.000     0.554    28.924
  AUG-23-2013 00:02:00      1.674     0.000     0.521    28.891
  AUG-23-2013 00:03:00      1.901     0.000     0.577    28.947
  AUG-23-2013 00:04:00      1.739     0.000     0.569    28.939
  AUG-23-2013 00:05:00      1.682     0.000     0.552    28.922
  AUG-23-2013 00:06:00      1.646     0.000     0.544    28.914
  AUG-23-2013 00:07:00      1.624     0.000     0.539    28.909
  AUG-23-2013 00:08:00      1.613     0.000     0.536    28.906
  AUG-23-2013 00:09:00      1.609     0.000     0.535    28.905
  AUG-23-2013 00:10:00      1.611     0.000     0.535    28.905
  AUG-23-2013 00:11:00      1.616     0.000     0.536    28.906
  AUG-23-2013 00:12:00      1.622     0.000     0.537    28.907
  AUG-23-2013 00:13:00      1.631     0.000     0.538    28.908
  AUG-23-2013 00:14:00      1.640     0.000     0.540    28.910
  AUG-23-2013 00:15:00      1.649     0.000     0.541    28.911
  AUG-23-2013 00:16:00      1.658     0.000     0.543    28.913
  AUG-23-2013 00:17:00      1.667     0.000     0.544    28.914
  AUG-23-2013 00:18:00      1.676     0.000     0.546    28.916
  AUG-23-2013 00:19:00      1.684     0.000     0.547    28.917
  AUG-23-2013 00:20:00      1.692     0.000     0.549    28.919
  AUG-23-2013 00:21:00      1.700     0.000     0.550    28.920
  AUG-23-2013 00:22:00      1.707     0.000     0.552    28.922
  AUG-23-2013 00:23:00      1.712     0.000     0.553    28.923
  AUG-23-2013 00:24:00      1.715     0.000     0.553    28.923
  AUG-23-2013 00:25:00      1.720     0.000     0.554    28.924
  AUG-23-2013 00:26:00      1.727     0.000     0.555    28.925
  AUG-23-2013 00:27:00      1.735     0.000     0.557    28.927
  AUG-23-2013 00:28:00      1.744     0.000     0.558    28.928
  AUG-23-2013 00:29:00      1.752     0.000     0.559    28.929
  AUG-23-2013 00:30:00      1.761     0.000     0.561    28.931
  AUG-23-2013 00:31:00      1.771     0.000     0.563    28.933
  AUG-23-2013 00:32:00      1.782     0.000     0.564    28.934
  AUG-23-2013 00:33:00      1.794     0.000     0.566    28.936
  AUG-23-2013 00:34:00      1.807     0.000     0.569    28.939
  AUG-23-2013 00:35:00      1.819     0.000     0.571    28.941
  AUG-23-2013 00:36:00      1.831     0.000     0.573    28.943
  AUG-23-2013 00:37:00      1.845     0.000     0.575    28.945
  AUG-23-2013 00:38:00      1.862     0.000     0.578    28.948
  AUG-23-2013 00:39:00      1.879     0.000     0.581    28.951
  AUG-23-2013 00:40:00      1.896     0.000     0.584    28.954
  AUG-23-2013 00:41:00      1.914     0.000     0.586    28.956
  AUG-23-2013 00:42:00      1.931     0.000     0.589    28.959
  AUG-23-2013 00:43:00      1.948     0.000     0.592    28.962
  AUG-23-2013 00:44:00      1.965     0.000     0.595    28.965
  AUG-23-2013 00:45:00      1.982     0.000     0.598    28.968
  AUG-23-2013 00:46:00      1.999     0.000     0.601    28.971
  AUG-23-2013 00:47:00      2.016     0.000     0.604    28.974
  AUG-23-2013 00:48:00      2.033     0.000     0.607    28.977
  AUG-23-2013 00:49:00      2.052     0.000     0.610    28.980
  AUG-23-2013 00:50:00      2.072     0.000     0.613    28.983
  AUG-23-2013 00:51:00      2.094     0.000     0.617    28.987
  AUG-23-2013 00:52:00      2.117     0.000     0.621    28.991
  AUG-23-2013 00:53:00      2.142     0.000     0.625    28.995
  AUG-23-2013 00:54:00      2.167     0.000     0.629    28.999
  AUG-23-2013 00:55:00      2.195     0.000     0.633    29.003
  AUG-23-2013 00:56:00      2.223     0.000     0.638    29.008
  AUG-23-2013 00:57:00      2.253     0.000     0.642    29.012
  AUG-23-2013 00:58:00      2.284     0.000     0.647    29.017
  AUG-23-2013 00:59:00      2.312     0.000     0.652    29.022
  AUG-23-2013 01:00:00      2.342     0.000     0.657    29.027
  AUG-23-2013 01:01:00      2.379     0.000     0.662    29.032
  AUG-23-2013 01:02:00      2.422     0.000     0.669    29.039
  AUG-23-2013 01:03:00      2.467     0.000     0.676    29.046
  AUG-23-2013 01:04:00      2.512     0.000     0.683    29.053
  AUG-23-2013 01:05:00      2.559     0.000     0.690    29.060
  AUG-23-2013 01:06:00      2.608     0.000     0.698    29.068
  AUG-23-2013 01:07:00      2.660     0.000     0.706    29.076
  AUG-23-2013 01:08:00      2.715     0.000     0.715    29.085
  AUG-23-2013 01:09:00      2.768     0.000     0.723    29.093
  AUG-23-2013 01:10:00      2.868     0.000     0.734    29.104
  AUG-23-2013 01:11:00      2.997     0.000     0.756    29.126
  AUG-23-2013 01:12:00      3.062     0.000     0.768    29.138
  AUG-23-2013 01:13:00      3.148     0.000     0.780    29.150
  AUG-23-2013 01:14:00      3.216     0.000     0.792    29.162
  AUG-23-2013 01:15:00      3.279     0.000     0.802    29.172
  AUG-23-2013 01:16:00      3.353     0.000     0.813    29.183
  AUG-23-2013 01:17:00      3.431     0.000     0.825    29.195
  AUG-23-2013 01:18:00      3.515     0.000     0.838    29.208
  AUG-23-2013 01:19:00      3.602     0.000     0.851    29.221
  AUG-23-2013 01:20:00      3.685     0.000     0.865    29.235
  AUG-23-2013 01:21:00      3.770     0.000     0.878    29.248
  AUG-23-2013 01:22:00      3.854     0.000     0.892    29.262
  AUG-23-2013 01:23:00      3.941     0.000     0.906    29.276
  AUG-23-2013 01:24:00      4.042     0.000     0.921    29.291
  AUG-23-2013 01:25:00      4.126     0.000     0.936    29.306
  AUG-23-2013 01:26:00      4.138     0.000     0.943    29.313
  AUG-23-2013 01:27:00      4.137     0.000     0.944    29.314
  AUG-23-2013 01:28:00      4.137     0.000     0.944    29.314
  AUG-23-2013 01:29:00      4.137     0.000     0.944    29.314
  AUG-23-2013 01:30:00      4.137     0.000     0.944    29.314
  AUG-23-2013 01:31:00      4.137     0.000     0.944    29.314
  AUG-23-2013 01:32:00      4.137     0.000     0.944    29.314
  AUG-23-2013 01:33:00      4.137     0.000     0.944    29.314
  AUG-23-2013 01:34:00      4.137     0.000     0.944    29.314
  AUG-23-2013 01:35:00      4.137     0.000     0.944    29.314
  AUG-23-2013 01:36:00      4.137     0.000     0.944    29.314
  AUG-23-2013 01:37:00      4.137     0.000     0.944    29.314
  AUG-23-2013 01:38:00      4.137     0.000     0.944    29.314
  AUG-23-2013 01:39:00      4.137     0.000     0.944    29.314
  AUG-23-2013 01:40:00      4.137     0.000     0.944    29.314
  AUG-23-2013 01:41:00      4.137     0.000     0.944    29.314
  AUG-23-2013 01:42:00      4.137     0.000     0.944    29.314
  AUG-23-2013 01:43:00      4.137     0.000     0.944    29.314
  AUG-23-2013 01:44:00      4.137     0.000     0.944    29.314
  AUG-23-2013 01:45:00      4.137     0.000     0.944    29.314
  AUG-23-2013 01:46:00      4.137     0.000     0.944    29.314
  AUG-23-2013 01:47:00      4.137     0.000     0.944    29.314
  AUG-23-2013 01:48:00      4.137     0.000     0.944    29.314
  AUG-23-2013 01:49:00      4.137     0.000     0.944    29.314
  AUG-23-2013 01:50:00      4.137     0.000     0.944    29.314
  AUG-23-2013 01:51:00      4.137     0.000     0.944    29.314
  AUG-23-2013 01:52:00      4.137     0.000     0.944    29.314
  AUG-23-2013 01:53:00      4.137     0.000     0.944    29.314
  AUG-23-2013 01:54:00      4.137     0.000     0.944    29.314
  AUG-23-2013 01:55:00      4.137     0.000     0.944    29.314
  AUG-23-2013 01:56:00      4.137     0.000     0.944    29.314
  AUG-23-2013 01:57:00      4.137     0.000     0.944    29.314
  AUG-23-2013 01:58:00      4.137     0.000     0.944    29.314
  AUG-23-2013 01:59:00      4.137     0.000     0.944    29.314
  AUG-23-2013 02:00:00      4.137     0.000     0.944    29.314
  AUG-23-2013 02:01:00      4.137     0.000     0.944    29.314
  AUG-23-2013 02:02:00      4.137     0.000     0.944    29.314
  AUG-23-2013 02:03:00      4.137     0.000     0.944    29.314
  AUG-23-2013 02:04:00      4.137     0.000     0.944    29.314
  AUG-23-2013 02:05:00      4.137     0.000     0.944    29.314
  AUG-23-2013 02:06:00      4.137     0.000     0.944    29.314
  AUG-23-2013 02:07:00      4.137     0.000     0.944    29.314
  AUG-23-2013 02:08:00      4.137     0.000     0.944    29.314
  AUG-23-2013 02:09:00      4.137     0.000     0.944    29.314
  AUG-23-2013 02:10:00      4.137     0.000     0.944    29.314
  AUG-23-2013 02:11:00      4.137     0.000     0.944    29.314
  AUG-23-2013 02:12:00      4.137     0.000     0.944    29.314
  AUG-23-2013 02:13:00      4.137     0.000     0.944    29.314
  AUG-23-2013 02:14:00      4.137     0.000     0.944    29.314
  AUG-23-2013 02:15:00      4.137     0.000     0.944    29.314
  AUG-23-2013 02:16:00      4.137     0.000     0.944    29.314
  AUG-23-2013 02:17:00      4.137     0.000     0.944    29.314
  AUG-23-2013 02:18:00      4.137     0.000     0.944    29.314
  AUG-23-2013 02:19:00      4.137     0.000     0.944    29.314
  AUG-23-2013 02:20:00      4.137     0.000     0.944    29.314
  AUG-23-2013 02:21:00      4.137     0.000     0.944    29.314
  AUG-23-2013 02:22:00      4.137     0.000     0.944    29.314
  AUG-23-2013 02:23:00      4.137     0.000     0.944    29.314
  AUG-23-2013 02:24:00      4.137     0.000     0.944    29.314
  AUG-23-2013 02:25:00      4.137     0.000     0.944    29.314
  AUG-23-2013 02:26:00      4.137     0.000     0.944    29.314
  AUG-23-2013 02:27:00      4.137     0.000     0.944    29.314
  AUG-23-2013 02:28:00      4.137     0.000     0.944    29.314
  AUG-23-2013 02:29:00      4.137     0.000     0.944    29.314
  AUG-23-2013 02:30:00      4.137     0.000     0.944    29.314
  AUG-23-2013 02:31:00      4.137     0.000     0.944    29.314
  AUG-23-2013 02:32:00      4.137     0.000     0.944    29.314
  AUG-23-2013 02:33:00      4.137     0.000     0.944    29.314
  AUG-23-2013 02:34:00      4.137     0.000     0.944    29.314
  AUG-23-2013 02:35:00      4.137     0.000     0.944    29.314
  AUG-23-2013 02:36:00      4.081     0.000     0.939    29.309
  AUG-23-2013 02:37:00      3.981     0.000     0.925    29.295
  AUG-23-2013 02:38:00      3.891     0.000     0.910    29.280
  AUG-23-2013 02:39:00      3.807     0.000     0.896    29.266
  AUG-23-2013 02:40:00      3.720     0.000     0.883    29.253
  AUG-23-2013 02:41:00      3.637     0.000     0.869    29.239
  AUG-23-2013 02:42:00      3.551     0.000     0.856    29.226
  AUG-23-2013 02:43:00      3.471     0.000     0.843    29.213
  AUG-23-2013 02:44:00      3.392     0.000     0.830    29.200
  AUG-23-2013 02:45:00      3.317     0.000     0.818    29.188
  AUG-23-2013 02:46:00      3.255     0.000     0.807    29.177
  AUG-23-2013 02:47:00      3.192     0.000     0.798    29.168
  AUG-23-2013 02:48:00      3.117     0.000     0.787    29.157
  AUG-23-2013 02:49:00      3.040     0.000     0.775    29.145
  AUG-23-2013 02:50:00      2.976     0.000     0.764    29.134
[...]
  AUG-23-2013 04:55:00      1.600     1.714     0.818     0.606
  AUG-23-2013 04:56:00      1.600     1.714     0.818     0.606
  AUG-23-2013 04:57:00      1.600     1.714     0.818     0.606
  AUG-23-2013 04:58:00      1.600     1.714     0.818     0.606
  AUG-23-2013 04:59:00      1.600     1.714     0.818     0.606
  AUG-23-2013 05:00:00      1.600     1.714     0.818     0.606
  
  
  <<< Link 7 >>>
  ----------------------------------------------------------------
                             Flow  Velocity     Depth  Capacity/
  Date        Time            CMS     m/sec    meters   Setting 
  ----------------------------------------------------------------
  AUG-23-2013 00:01:00      1.575     2.070     0.694     0.494
  AUG-23-2013 00:02:00      1.515     2.028     0.684     0.485
  AUG-23-2013 00:03:00      1.580     2.040     0.703     0.503
  AUG-23-2013 00:04:00      1.626     2.063     0.713     0.512
  AUG-23-2013 00:05:00      1.676     2.076     0.727     0.524
  AUG-23-2013 00:06:00      1.741     2.101     0.742     0.538
  AUG-23-2013 00:07:00      1.754     2.117     0.742     0.538
  AUG-23-2013 00:08:00      1.719     2.111     0.732     0.529
  AUG-23-2013 00:09:00      1.674     2.094     0.721     0.519
  AUG-23-2013 00:10:00      1.643     2.080     0.714     0.513
  AUG-23-2013 00:11:00      1.625     2.072     0.710     0.509
  AUG-23-2013 00:12:00      1.616     2.067     0.708     0.508
  AUG-23-2013 00:13:00      1.613     2.065     0.708     0.507
  AUG-23-2013 00:14:00      1.615     2.065     0.709     0.508
  AUG-23-2013 00:15:00      1.620     2.066     0.710     0.509
  AUG-23-2013 00:16:00      1.627     2.068     0.712     0.511
  AUG-23-2013 00:17:00      1.635     2.071     0.714     0.513
  AUG-23-2013 00:18:00      1.644     2.074     0.716     0.515
  AUG-23-2013 00:19:00      1.653     2.077     0.719     0.517
  AUG-23-2013 00:20:00      1.662     2.080     0.721     0.519
  AUG-23-2013 00:21:00      1.671     2.084     0.723     0.521
  AUG-23-2013 00:22:00      1.680     2.087     0.725     0.523
  AUG-23-2013 00:23:00      1.688     2.090     0.727     0.525
  AUG-23-2013 00:24:00      1.696     2.093     0.729     0.526
  AUG-23-2013 00:25:00      1.703     2.096     0.730     0.528
  AUG-23-2013 00:26:00      1.709     2.098     0.732     0.529
  AUG-23-2013 00:27:00      1.713     2.100     0.733     0.530
  AUG-23-2013 00:28:00      1.718     2.102     0.734     0.531
  AUG-23-2013 00:29:00      1.725     2.104     0.736     0.532
  AUG-23-2013 00:30:00      1.732     2.106     0.738     0.534
  AUG-23-2013 00:31:00      1.740     2.109     0.739     0.536
  AUG-23-2013 00:32:00      1.748     2.112     0.742     0.538
  AUG-23-2013 00:33:00      1.757     2.115     0.744     0.540
  AUG-23-2013 00:34:00      1.767     2.118     0.746     0.542
  AUG-23-2013 00:35:00      1.777     2.121     0.749     0.544
  AUG-23-2013 00:36:00      1.789     2.125     0.751     0.547
  AUG-23-2013 00:37:00      1.801     2.129     0.754     0.550
  AUG-23-2013 00:38:00      1.813     2.133     0.757     0.552
  AUG-23-2013 00:39:00      1.826     2.137     0.760     0.555
  AUG-23-2013 00:40:00      1.839     2.141     0.764     0.558
  AUG-23-2013 00:41:00      1.855     2.146     0.768     0.561
  AUG-23-2013 00:42:00      1.871     2.151     0.772     0.565
  AUG-23-2013 00:43:00      1.888     2.156     0.776     0.569
  AUG-23-2013 00:44:00      1.906     2.162     0.780     0.573
  AUG-23-2013 00:45:00      1.923     2.167     0.784     0.576
  AUG-23-2013 00:46:00      1.940     2.173     0.788     0.580
  AUG-23-2013 00:47:00      1.957     2.178     0.792     0.584
  AUG-23-2013 00:48:00      1.974     2.184     0.796     0.587
  AUG-23-2013 00:49:00      1.991     2.189     0.800     0.591
  AUG-23-2013 00:50:00      2.009     2.195     0.804     0.594
  AUG-23-2013 00:51:00      2.026     2.200     0.808     0.598
  AUG-23-2013 00:52:00      2.045     2.206     0.813     0.602
  AUG-23-2013 00:53:00      2.064     2.211     0.818     0.606
  AUG-23-2013 00:54:00      2.085     2.218     0.823     0.611
  AUG-23-2013 00:55:00      2.109     2.224     0.828     0.616
  AUG-23-2013 00:56:00      2.133     2.231     0.834     0.621
  AUG-23-2013 00:57:00      2.158     2.238     0.840     0.626
  AUG-23-2013 00:58:00      2.185     2.246     0.846     0.632
  AUG-23-2013 00:59:00      2.213     2.253     0.853     0.638
  AUG-23-2013 01:00:00      2.242     2.261     0.860     0.644
  AUG-23-2013 01:01:00      2.272     2.270     0.867     0.650
  AUG-23-2013 01:02:00      2.302     2.278     0.874     0.656
  AUG-23-2013 01:03:00      2.333     2.287     0.881     0.663
  AUG-23-2013 01:04:00      2.369     2.295     0.890     0.670
  AUG-23-2013 01:05:00      2.410     2.305     0.900     0.679
  AUG-23-2013 01:06:00      2.453     2.316     0.910     0.688
  AUG-23-2013 01:07:00      2.498     2.326     0.921     0.697
  AUG-23-2013 01:08:00      2.545     2.337     0.932     0.707
  AUG-23-2013 01:09:00      2.594     2.349     0.944     0.717
  AUG-23-2013 01:10:00      2.648     2.363     0.957     0.728
  AUG-23-2013 01:11:00      2.703     2.376     0.970     0.739
  AUG-23-2013 01:12:00      2.776     2.389     0.989     0.755
  AUG-23-2013 01:13:00      2.863     2.406     1.011     0.773
  AUG-23-2013 01:14:00      2.898     2.418     1.018     0.779
  AUG-23-2013 01:15:00      2.902     2.421     1.018     0.779
  AUG-23-2013 01:16:00      2.899     2.421     1.017     0.778
  AUG-23-2013 01:17:00      2.899     2.420     1.017     0.778
  AUG-23-2013 01:18:00      2.899     2.420     1.017     0.778
  AUG-23-2013 01:19:00      2.899     2.420     1.017     0.778
  AUG-23-2013 01:20:00      2.899     2.420     1.017     0.778
  AUG-23-2013 01:21:00      2.899     2.420     1.017     0.778
  AUG-23-2013 01:22:00      2.899     2.420     1.017     0.778
  AUG-23-2013 01:23:00      2.899     2.420     1.017     0.778
  AUG-23-2013 01:24:00      2.899     2.420     1.017     0.778
  AUG-23-2013 01:25:00      2.899     2.420     1.017     0.778
  AUG-23-2013 01:26:00      2.899     2.420     1.017     0.778
  AUG-23-2013 01:27:00      2.899     2.420     1.017     0.778
  AUG-23-2013 01:28:00      2.899     2.420     1.017     0.778
  AUG-23-2013 01:29:00      2.899     2.420     1.017     0.778
  AUG-23-2013 01:30:00      2.899     2.420     1.017     0.778
  AUG-23-2013 01:31:00      2.899     2.420     1.017     0.778
  AUG-23-2013 01:32:00      2.899     2.420     1.017     0.778
  AUG-23-2013 01:33:00      2.899     2.420     1.017     0.778
  AUG-23-2013 01:34:00      2.899     2.420     1.017     0.778
  AUG-23-2013 01:35:00      2.899     2.420     1.017     0.778
  AUG-23-2013 01:36:00      2.899     2.420     1.017     0.778
  AUG-23-2013 01:37:00      2.899     2.420     1.017     0.778
  AUG-23-2013 01:38:00      2.899     2.420     1.017     0.778
  AUG-23-2013 01:39:00      2.899     2.420     1.017     0.778
  AUG-23-2013 01:40:00      2.899     2.420     1.017     0.778
  AUG-23-2013 01:41:00      2.899     2.420     1.017     0.778
  AUG-23-2013 01:42:00      2.899     2.420     1.017     0.778
  AUG-23-2013 01:43:00      2.899     2.420     1.017     0.778
  AUG-23-2013 01:44:00      2.899     2.420     1.017     0.778
  AUG-23-2013 01:45:00      2.899     2.420     1.017     0.778
  AUG-23-2013 01:46:00      2.899     2.420     1.017     0.778
  AUG-23-2013 01:47:00      2.899     2.420     1.017     0.778
  AUG-23-2013 01:48:00      2.899     2.420     1.017     0.778
  AUG-23-2013 01:49:00      2.899     2.420     1.017     0.778
  AUG-23-2013 01:50:00      2.899     2.420     1.017     0.778
  AUG-23-2013 01:51:00      2.899     2.420     1.017     0.778
  AUG-23-2013 01:52:00      2.899     2.420     1.017     0.778
  AUG-23-2013 01:53:00      2.899     2.420     1.017     0.778
  AUG-23-2013 01:54:00      2.899     2.420     1.017     0.778
  AUG-23-2013 01:55:00      2.899     2.420     1.017     0.778
  AUG-23-2013 01:56:00      2.899     2.420     1.017     0.778
  AUG-23-2013 01:57:00      2.899     2.420     1.017     0.778
  AUG-23-2013 01:58:00      2.899     2.420     1.017     0.778
  AUG-23-2013 01:59:00      2.899     2.420     1.017     0.778
  AUG-23-2013 02:00:00      2.899     2.420     1.017     0.778
  AUG-23-2013 02:01:00      2.899     2.420     1.017     0.778
  AUG-23-2013 02:02:00      2.899     2.420     1.017     0.778
  AUG-23-2013 02:03:00      2.899     2.420     1.017     0.778
  AUG-23-2013 02:04:00      2.899     2.420     1.017     0.778
  AUG-23-2013 02:05:00      2.899     2.420     1.017     0.778
  AUG-23-2013 02:06:00      2.899     2.420     1.017     0.778
  AUG-23-2013 02:07:00      2.899     2.420     1.017     0.778
  AUG-23-2013 02:08:00      2.899     2.420     1.017     0.778
  AUG-23-2013 02:09:00      2.899     2.420     1.017     0.778
  AUG-23-2013 02:10:00      2.899     2.420     1.017     0.778
  AUG-23-2013 02:11:00      2.899     2.420     1.017     0.778
  AUG-23-2013 02:12:00      2.899     2.420     1.017     0.778
  AUG-23-2013 02:13:00      2.899     2.420     1.017     0.778
  AUG-23-2013 02:14:00      2.899     2.420     1.017     0.778
  AUG-23-2013 02:15:00      2.899     2.420     1.017     0.778
  AUG-23-2013 02:16:00      2.899     2.420     1.017     0.778
  AUG-23-2013 02:17:00      2.899     2.420     1.017     0.778
  AUG-23-2013 02:18:00      2.899     2.420     1.017     0.778
  AUG-23-2013 02:19:00      2.899     2.420     1.017     0.778
  AUG-23-2013 02:20:00      2.899     2.420     1.017     0.778
  AUG-23-2013 02:21:00      2.899     2.420     1.017     0.778
  AUG-23-2013 02:22:00      2.899     2.420     1.017     0.778
  AUG-23-2013 02:23:00      2.899     2.420     1.017     0.778
  AUG-23-2013 02:24:00      2.899     2.420     1.017     0.778
  AUG-23-2013 02:25:00      2.899     2.420     1.017     0.778
  AUG-23-2013 02:26:00      2.899     2.420     1.017     0.778
  AUG-23-2013 02:27:00      2.899     2.420     1.017     0.778
  AUG-23-2013 02:28:00      2.899     2.420     1.017     0.778
  AUG-23-2013 02:29:00      2.899     2.420     1.017     0.778
  AUG-23-2013 02:30:00      2.899     2.420     1.017     0.778
  AUG-23-2013 02:31:00      2.899     2.420     1.017     0.778
  AUG-23-2013 02:32:00      2.899     2.420     1.017     0.778
  AUG-23-2013 02:33:00      2.899     2.420     1.017     0.778
  AUG-23-2013 02:34:00      2.899     2.420     1.017     0.778
  AUG-23-2013 02:35:00      2.899     2.420     1.017     0.778
  AUG-23-2013 02:36:00      2.899     2.420     1.017     0.778
  AUG-23-2013 02:37:00      2.899     2.420     1.017     0.778
  AUG-23-2013 02:38:00      2.899     2.420     1.017     0.778
  AUG-23-2013 02:39:00      2.899     2.420     1.017     0.778
  AUG-23-2013 02:40:00      2.899     2.420     1.017     0.778
  AUG-23-2013 02:41:00      2.899     2.420     1.017     0.778
  AUG-23-2013 02:42:00      2.899     2.420     1.017     0.778
  AUG-23-2013 02:43:00      2.899     2.420     1.017     0.778
  AUG-23-2013 02:44:00      2.899     2.420     1.017     0.778
  AUG-23-2013 02:45:00      2.899     2.420     1.017     0.778
  AUG-23-2013 02:46:00      2.899     2.420     1.017     0.778
  AUG-23-2013 02:47:00      2.899     2.420     1.017     0.778
  AUG-23-2013 02:48:00      2.899     2.420     1.017     0.778
  AUG-23-2013 02:49:00      2.899     2.420     1.017     0.778
  AUG-23-2013 02:50:00      2.899     2.420     1.017     0.778
  AUG-23-2013 02:51:00      2.899     2.420     1.017     0.778
  AUG-23-2013 02:52:00      2.899     2.420     1.017     0.778
  AUG-23-2013 02:53:00      2.899     2.420     1.017     0.778
  AUG-23-2013 02:54:00      2.891     2.420     1.014     0.776
  AUG-23-2013 02:55:00      2.864     2.417     1.007     0.770
  AUG-23-2013 02:56:00      2.831     2.411     0.998     0.763
  AUG-23-2013 02:57:00      2.800     2.405     0.990     0.756
  AUG-23-2013 02:58:00      2.766     2.399     0.982     0.749
  AUG-23-2013 02:59:00      2.726     2.392     0.971     0.740
  AUG-23-2013 03:00:00      2.681     2.382     0.960     0.731
  AUG-23-2013 03:01:00      2.635     2.372     0.949     0.722
  AUG-23-2013 03:02:00      2.589     2.361     0.938     0.712
  AUG-23-2013 03:03:00      2.544     2.350     0.928     0.703
  AUG-23-2013 03:04:00      2.499     2.339     0.917     0.694
  AUG-23-2013 03:05:00      2.456     2.328     0.907     0.685
  AUG-23-2013 03:06:00      2.416     2.318     0.897     0.677
  AUG-23-2013 03:07:00      2.379     2.308     0.889     0.669
  AUG-23-2013 03:08:00      2.346     2.299     0.881     0.663
  AUG-23-2013 03:09:00      2.313     2.291     0.873     0.656
  AUG-23-2013 03:10:00      2.282     2.282     0.866     0.650
  AUG-23-2013 03:11:00      2.252     2.273     0.859     0.643
  AUG-23-2013 03:12:00      2.223     2.264     0.853     0.638
  AUG-23-2013 03:13:00      2.195     2.257     0.846     0.632
  AUG-23-2013 03:14:00      2.169     2.249     0.840     0.626
  AUG-23-2013 03:15:00      2.143     2.242     0.834     0.621
  AUG-23-2013 03:16:00      2.119     2.235     0.828     0.616
  AUG-23-2013 03:17:00      2.097     2.228     0.823     0.611
  AUG-23-2013 03:18:00      2.076     2.221     0.818     0.607
  AUG-23-2013 03:19:00      2.056     2.215     0.814     0.603
  AUG-23-2013 03:20:00      2.038     2.209     0.809     0.599
  AUG-23-2013 03:21:00      2.020     2.204     0.805     0.595
  AUG-23-2013 03:22:00      2.003     2.198     0.801     0.592
  AUG-23-2013 03:23:00      1.986     2.193     0.797     0.588
  AUG-23-2013 03:24:00      1.969     2.187     0.793     0.585
  AUG-23-2013 03:25:00      1.952     2.182     0.789     0.581
  AUG-23-2013 03:26:00      1.936     2.177     0.785     0.578
  AUG-23-2013 03:27:00      1.918     2.171     0.781     0.574
  AUG-23-2013 03:28:00      1.900     2.166     0.777     0.570
  AUG-23-2013 03:29:00      1.883     2.160     0.773     0.566
  AUG-23-2013 03:30:00      1.867     2.155     0.769     0.563
  AUG-23-2013 03:31:00      1.852     2.150     0.765     0.559
  AUG-23-2013 03:32:00      1.838     2.146     0.762     0.556
  AUG-23-2013 03:33:00      1.825     2.141     0.759     0.554
  AUG-23-2013 03:34:00      1.812     2.137     0.756     0.551
  AUG-23-2013 03:35:00      1.799     2.133     0.753     0.548
  AUG-23-2013 03:36:00      1.787     2.128     0.750     0.545
  AUG-23-2013 03:37:00      1.776     2.125     0.747     0.543
  AUG-23-2013 03:38:00      1.766     2.121     0.745     0.541
  AUG-23-2013 03:39:00      1.757     2.118     0.743     0.539
  AUG-23-2013 03:40:00      1.748     2.114     0.741     0.537
  AUG-23-2013 03:41:00      1.739     2.111     0.738     0.535
  AUG-23-2013 03:42:00      1.731     2.108     0.737     0.533
  AUG-23-2013 03:43:00      1.725     2.106     0.735     0.532
  AUG-23-2013 03:44:00      1.720     2.104     0.734     0.531
  AUG-23-2013 03:45:00      1.715     2.102     0.733     0.530
  AUG-23-2013 03:46:00      1.709     2.100     0.731     0.529
  AUG-23-2013 03:47:00      1.703     2.098     0.730     0.527
  AUG-23-2013 03:48:00      1.696     2.096     0.728     0.526
  AUG-23-2013 03:49:00      1.688     2.093     0.726     0.524
  AUG-23-2013 03:50:00      1.680     2.090     0.724     0.522
  AUG-23-2013 03:51:00      1.672     2.087     0.722     0.520
  AUG-23-2013 03:52:00      1.663     2.084     0.720     0.518
  AUG-23-2013 03:53:00      1.654     2.081     0.718     0.516
  AUG-23-2013 03:54:00      1.645     2.078     0.716     0.514
  AUG-23-2013 03:55:00      1.636     2.074     0.713     0.512
  AUG-23-2013 03:56:00      1.627     2.071     0.711     0.510
  AUG-23-2013 03:57:00      1.619     2.068     0.709     0.508
  AUG-23-2013 03:58:00      1.612     2.066     0.708     0.507
  AUG-23-2013 03:59:00      1.607     2.064     0.706     0.506
  AUG-23-2013 04:00:00      1.604     2.062     0.706     0.505
  AUG-23-2013 04:01:00      1.602     2.061     0.705     0.505
  AUG-23-2013 04:02:00      1.601     2.061     0.705     0.505
  AUG-23-2013 04:03:00      1.601     2.061     0.705     0.505
  AUG-23-2013 04:04:00      1.600     2.060     0.705     0.504
  AUG-23-2013 04:05:00      1.600     2.060     0.705     0.504
  AUG-23-2013 04:06:00      1.600     2.060     0.705     0.504
  AUG-23-2013 04:07:00      1.600     2.060     0.705     0.504
  AUG-23-2013 04:08:00      1.600     2.060     0.705     0.504
  AUG-23-2013 04:09:00      1.600     2.060     0.705     0.504
  AUG-23-2013 04:10:00      1.600     2.060     0.705     0.504
  AUG-23-2013 04:11:00      1.600     2.060     0.705     0.504
  AUG-23-2013 04:12:00      1.600     2.060     0.705     0.504
  AUG-23-2013 04:13:00      1.600     2.060     0.705     0.504
  AUG-23-2013 04:14:00      1.600     2.060     0.705     0.504
  AUG-23-2013 04:15:00      1.600     2.060     0.705     0.504
  AUG-23-2013 04:16:00      1.600     2.060     0.705     0.504
  AUG-23-2013 04:17:00      1.600     2.060     0.705     0.504
  AUG-23-2013 04:18:00      1.600     2.060     0.705     0.504
  AUG-23-2013 04:19:00      1.600     2.060     0.705     0.504
  AUG-23-2013 04:20:00      1.600     2.060     0.705     0.504
  AUG-23-2013 04:21:00      1.600     2.060     0.705     0.504
  AUG-23-2013 04:22:00      1.600     2.060     0.705     0.504
  AUG-23-2013 04:23:00      1.600     2.060     0.705     0.504
  AUG-23-2013 04:24:00      1.600     2.060     0.705     0.504
  AUG-23-2013 04:25:00      1.600     2.060     0.705     0.504
  AUG-23-2013 04:26:00      1.600     2.060     0.705     0.504
  AUG-23-2013 04:27:00      1.600     2.060     0.705     0.504
  AUG-23-2013 04:28:00      1.600     2.060     0.705     0.504
  AUG-23-2013 04:29:00      1.600     2.060     0.705     0.504
  AUG-23-2013 04:30:00      1.600     2.060     0.705     0.504
  AUG-23-2013 04:31:00      1.600     2.060     0.705     0.504
  AUG-23-2013 04:32:00      1.600     2.060     0.705     0.504
  AUG-23-2013 04:33:00      1.600     2.060     0.705     0.504
  AUG-23-2013 04:34:00      1.600     2.060     0.705     0.504
  AUG-23-2013 04:35:00      1.600     2.060     0.705     0.504
  AUG-23-2013 04:36:00      1.600     2.060     0.705     0.504
  AUG-23-2013 04:37:00      1.600     2.060     0.705     0.504
  AUG-23-2013 04:38:00      1.600     2.060     0.705     0.504
  AUG-23-2013 04:39:00      1.600     2.060     0.705     0.504
  AUG-23-2013 04:40:00      1.600     2.060     0.705     0.504
  AUG-23-2013 04:41:00      1.600     2.060     0.705     0.504
  AUG-23-2013 04:42:00      1.600     2.060     0.705     0.504
  AUG-23-2013 04:43:00      1.600     2.060     0.705     0.504
  AUG-23-2013 04:44:00      1.600     2.060     0.705     0.504
  AUG-23-2013 04:45:00      1.600     2.060     0.705     0.504
  AUG-23-2013 04:46:00      1.600     2.060     0.705     0.504
  AUG-23-2013 04:47:00      1.600     2.060     0.705     0.504
  AUG-23-2013 04:48:00      1.600     2.060     0.705     0.504
  AUG-23-2013 04:49:00      1.600     2.060     0.705     0.504
  AUG-23-2013 04:50:00      1.600     2.060     0.705     0.504
  AUG-23-2013 04:51:00      1.600     2.060     0.705     0.504
  AUG-23-2013 04:52:00      1.600     2.060     0.705     0.504
  AUG-23-2013 04:53:00      1.600     2.060     0.705     0.504
  AUG-23-2013 04:54:00      1.600     2.060     0.705     0.504
  AUG-23-2013 04:55:00      1.600     2.060     0.705     0.504
  AUG-23-2013 04:56:00      1.600     2.060     0.705     0.504
  AUG-23-2013 04:57:00      1.600     2.060     0.705     0.504
  AUG-23-2013 04:58:00      1.600     2.060     0.705     0.504
  AUG-23-2013 04:59:00      1.600     2.060     0.705     0.504
  AUG-23-2013 05:00:00      1.600     2.060     0.705     0.504
  

  Analysis begun on:  Mon Aug 09 23:09:49 2021
  Analysis ended on:  Mon Aug 09 23:09:49 2021
  Total elapsed time: < 1 sec